TreeCmp version 1.0-b291

Active options:
Type of the analysis:  one-to-all comparison mode (-r)
Metrics:
  1. MatchingSplit (ms)
Input file: ../gene_trees/rogueNarok/is.poly.RnR.15.trees
Output file: ../results/is.poly.RnR.15.MS.dat
Additional options:
P - Prune compared trees if needed (trees can have different leaf sets).
-----
2017-06-20 09:32:25: Start of scanning input file: ../gene_trees/rogueNarok/is.poly.RnR.15.trees
2017-06-20 09:32:30: End of scanning input file: ../gene_trees/rogueNarok/is.poly.RnR.15.trees
2017-06-20 09:32:30: 1478 valid trees found in file: ../gene_trees/rogueNarok/is.poly.RnR.15.trees
2017-06-20 09:32:30: Start of calculation...please wait...
2017-06-20 09:32:30: 0.00% completed...
2017-06-20 09:32:33: 5.01% completed...
2017-06-20 09:32:35: 10.01% completed...
2017-06-20 09:32:37: 15.02% completed...
2017-06-20 09:32:38: 20.03% completed...
2017-06-20 09:32:38: 25.03% completed...
2017-06-20 09:32:39: 30.04% completed...
2017-06-20 09:32:39: 35.05% completed...
2017-06-20 09:32:40: 40.05% completed...
2017-06-20 09:32:40: 45.06% completed...
2017-06-20 09:32:41: 50.07% completed...
2017-06-20 09:32:41: 55.07% completed...
2017-06-20 09:32:42: 60.08% completed...
2017-06-20 09:32:42: 65.09% completed...
2017-06-20 09:32:43: 70.09% completed...
2017-06-20 09:32:44: 75.10% completed...
2017-06-20 09:32:44: 80.11% completed...
2017-06-20 09:32:45: 85.12% completed...
2017-06-20 09:32:45: 90.12% completed...
2017-06-20 09:32:46: 95.13% completed...
2017-06-20 09:32:46: 100.00% completed.
2017-06-20 09:32:46: End of calculation.
2017-06-20 09:32:46: Total calculation time: 16111 ms.
