computing MS ...
TreeCmp version 1.0-b291

Active options:
Type of the analysis:  one-to-all comparison mode (-r)
Metrics:
  1. MatchingSplit (ms)
Input file: ../gene_trees/randprune/is.poly.gt.randprune.0.035.trees
Output file: ../results/is.poly.randprune.0.035.MS.dat
Additional options:
P - Prune compared trees if needed (trees can have different leaf sets).
-----
2017-06-19 22:49:31: Start of scanning input file: ../gene_trees/randprune/is.poly.gt.randprune.0.035.trees
2017-06-19 22:49:49: End of scanning input file: ../gene_trees/randprune/is.poly.gt.randprune.0.035.trees
2017-06-19 22:49:49: 1478 valid trees found in file: ../gene_trees/randprune/is.poly.gt.randprune.0.035.trees
2017-06-19 22:49:49: Start of calculation...please wait...
2017-06-19 22:49:49: 0.00% completed...
2017-06-19 22:49:56: 5.01% completed...
2017-06-19 22:49:59: 10.01% completed...
2017-06-19 22:50:03: 15.02% completed...
2017-06-19 22:50:06: 20.03% completed...
2017-06-19 22:50:09: 25.03% completed...
2017-06-19 22:50:12: 30.04% completed...
2017-06-19 22:50:15: 35.05% completed...
2017-06-19 22:50:18: 40.05% completed...
2017-06-19 22:50:20: 45.06% completed...
2017-06-19 22:50:22: 50.07% completed...
2017-06-19 22:50:25: 55.07% completed...
2017-06-19 22:50:27: 60.08% completed...
2017-06-19 22:50:29: 65.09% completed...
2017-06-19 22:50:32: 70.09% completed...
2017-06-19 22:50:34: 75.10% completed...
2017-06-19 22:50:37: 80.11% completed...
2017-06-19 22:50:39: 85.12% completed...
2017-06-19 22:50:41: 90.12% completed...
2017-06-19 22:50:43: 95.13% completed...
2017-06-19 22:50:46: 100.00% completed.
2017-06-19 22:50:46: End of calculation.
2017-06-19 22:50:46: Total calculation time: 56613 ms.
done
computing RF ...
done
All done!
.
done
All done!
