computing MSdone
computing MS ...
TreeCmp version 1.0-b291

Active options:
Type of the analysis:  one-to-all comparison mode (-r)
Metrics:
  1. MatchingSplit (ms)
Input file: ../gene_trees/randprune/is.poly.gt.randprune.0.060.trees
Output file: ../results/is.poly.randprune.0.060.MS.dat
Additional options:
P - Prune compared trees if needed (trees can have different leaf sets).
-----
2017-06-19 22:52:13: Start of scanning input file: ../gene_trees/randprune/is.poly.gt.randprune.0.060.trees
2017-06-19 22:52:24: End of scanning input file: ../gene_trees/randprune/is.poly.gt.randprune.0.060.trees
2017-06-19 22:52:24: 1478 valid trees found in file: ../gene_trees/randprune/is.poly.gt.randprune.0.060.trees
2017-06-19 22:52:24: Start of calculation...please wait...
2017-06-19 22:52:24: 0.00% completed...
2017-06-19 22:52:28: 5.01% completed...
2017-06-19 22:52:30: 10.01% completed...
2017-06-19 22:52:32: 15.02% completed...
2017-06-19 22:52:35: 20.03% completed...
2017-06-19 22:52:37: 25.03% completed...
2017-06-19 22:52:39: 30.04% completed...
2017-06-19 22:52:41: 35.05% completed...
2017-06-19 22:52:43: 40.05% completed...
2017-06-19 22:52:45: 45.06% completed...
2017-06-19 22:52:47: 50.07% completed...
2017-06-19 22:52:50: 55.07% completed...
2017-06-19 22:52:52: 60.08% completed...
2017-06-19 22:52:54: 65.09% completed...
2017-06-19 22:52:56: 70.09% completed...
2017-06-19 22:52:58: 75.10% completed...
2017-06-19 22:53:00: 80.11% completed...
2017-06-19 22:53:03: 85.12% completed...
2017-06-19 22:53:05: 90.12% completed...
2017-06-19 22:53:07: 95.13% completed...
2017-06-19 22:53:09: 100.00% completed.
2017-06-19 22:53:09: End of calculation.
2017-06-19 22:53:09: Total calculation time: 45319 ms.
done
computing RF ...
done
All done!
50:27: End of calculation.
2017-06-19 22:50:27: Total calculation time: 53828 ms.
2017-06-19 22:50:27: 100.00% completed.
2017-06-19 22:50:27: End of calculation.
2017-06-19 22:50:27: Total calculation time: 53898 ms.
2017-06-19 22:50:27: 100.00% completed.
2017-06-19 22:50:27: End of calculation.
2017-06-19 22:50:27: Total calculation time: 53902 ms.
2017-06-19 22:50:27: 100.00% completed.
2017-06-19 22:50:27: End of calculation.
2017-06-19 22:50:27: Total calculation time: 53989 ms.
2017-06-19 22:50:27: 100.00% completed.
2017-06-19 22:50:27: End of calculation.
2017-06-19 22:50:27: Total calculation time: 54029 ms.
2017-06-19 22:50:27: 100.00% completed.
2017-06-19 22:50:27: End of calculation.
2017-06-19 22:50:27: Total calculation time: 54034 ms.
2017-06-19 22:50:27: 100.00% completed.
2017-06-19 22:50:27: End of calculation.
2017-06-19 22:50:27: Total calculation time: 54091 ms.
2017-06-19 22:50:27: 100.00% completed.
2017-06-19 22:50:27: End of calculation.
2017-06-19 22:50:27: Total calculation time: 54161 ms.
2017-06-19 22:50:27: 100.00% completed.
2017-06-19 22:50:27: End of calculation.
2017-06-19 22:50:27: Total calculation time: 54205 ms.
2017-06-19 22:50:27: 100.00% completed.
2017-06-19 22:50:27: End of calculation.
2017-06-19 22:50:28: Total calculation time: 54209 ms.
2017-06-19 22:50:28: 100.00% completed.
2017-06-19 22:50:28: End of calculation.
2017-06-19 22:50:28: Total calculation time: 54281 ms.
2017-06-19 22:50:28: 100.00% completed.
2017-06-19 22:50:28: End of calculation.
2017-06-19 22:50:28: Total calculation time: 54285 ms.
2017-06-19 22:50:28: 100.00% completed.
2017-06-19 22:50:28: End of calculation.
2017-06-19 22:50:28: Total calculation time: 54393 ms.
2017-06-19 22:50:28: 100.00% completed.
2017-06-19 22:50:28: End of calculation.
2017-06-19 22:50:28: Total calculation time: 54429 ms.
2017-06-19 22:50:28: 100.00% completed.
2017-06-19 22:50:28: End of calculation.
2017-06-19 22:50:28: Total calculation time: 54432 ms.
2017-06-19 22:50:28: 100.00% completed.
2017-06-19 22:50:28: End of calculation.
2017-06-19 22:50:28: Total calculation time: 54481 ms.
2017-06-19 22:50:28: 100.00% completed.
2017-06-19 22:50:28: End of calculation.
2017-06-19 22:50:28: Total calculation time: 54558 ms.
2017-06-19 22:50:28: 100.00% completed.
2017-06-19 22:50:28: End of calculation.
2017-06-19 22:50:28: Total calculation time: 54561 ms.
2017-06-19 22:50:28: 100.00% completed.
2017-06-19 22:50:28: End of calculation.
2017-06-19 22:50:28: Total calculation time: 54614 ms.
2017-06-19 22:50:28: 100.00% completed.
2017-06-19 22:50:28: End of calculation.
2017-06-19 22:50:28: Total calculation time: 54620 ms.
2017-06-19 22:50:28: 100.00% completed.
2017-06-19 22:50:28: End of calculation.
2017-06-19 22:50:28: Total calculation time: 54740 ms.
2017-06-19 22:50:28: 100.00% completed.
2017-06-19 22:50:28: End of calculation.
2017-06-19 22:50:28: Total calculation time: 54744 ms.
2017-06-19 22:50:28: 100.00% completed.
2017-06-19 22:50:28: End of calculation.
2017-06-19 22:50:28: Total calculation time: 54783 ms.
2017-06-19 22:50:28: 100.00% completed.
2017-06-19 22:50:28: End of calculation.
2017-06-19 22:50:28: Total calculation time: 54842 ms.
2017-06-19 22:50:28: 100.00% completed.
2017-06-19 22:50:28: End of calculation.
2017-06-19 22:50:28: Total calculation time: 54878 ms.
2017-06-19 22:50:28: 100.00% completed.
2017-06-19 22:50:28: End of calculation.
2017-06-19 22:50:28: Total calculation time: 54918 ms.
2017-06-19 22:50:28: 100.00% completed.
2017-06-19 22:50:28: End of calculation.
2017-06-19 22:50:28: Total calculation time: 54972 ms.
2017-06-19 22:50:28: 100.00% completed.
2017-06-19 22:50:28: End of calculation.
2017-06-19 22:50:28: Total calculation time: 54983 ms.
2017-06-19 22:50:28: 100.00% completed.
2017-06-19 22:50:28: End of calculation.
2017-06-19 22:50:28: Total calculation time: 55027 ms.
2017-06-19 22:50:28: 100.00% completed.
2017-06-19 22:50:28: End of calculation.
2017-06-19 22:50:28: Total calculation time: 55046 ms.
2017-06-19 22:50:28: 100.00% completed.
2017-06-19 22:50:28: End of calculation.
2017-06-19 22:50:28: Total calculation time: 55098 ms.
2017-06-19 22:50:28: 100.00% completed.
2017-06-19 22:50:28: End of calculation.
2017-06-19 22:50:28: Total calculation time: 55101 ms.
2017-06-19 22:50:28: 100.00% completed.
2017-06-19 22:50:28: End of calculation.
2017-06-19 22:50:28: Total calculation time: 55147 ms.
2017-06-19 22:50:28: 100.00% completed.
2017-06-19 22:50:28: End of calculation.
2017-06-19 22:50:28: Total calculation time: 55151 ms.
2017-06-19 22:50:28: 100.00% completed.
2017-06-19 22:50:28: End of calculation.
2017-06-19 22:50:28: Total calculation time: 55231 ms.
2017-06-19 22:50:29: 100.00% completed.
2017-06-19 22:50:29: End of calculation.
2017-06-19 22:50:29: Total calculation time: 55290 ms.
2017-06-19 22:50:29: 100.00% completed.
2017-06-19 22:50:29: End of calculation.
2017-06-19 22:50:29: Total calculation time: 55299 ms.
2017-06-19 22:50:29: 100.00% completed.
2017-06-19 22:50:29: End of calculation.
2017-06-19 22:50:29: Total calculation time: 55360 ms.
2017-06-19 22:50:29: 100.00% completed.
2017-06-19 22:50:29: End of calculation.
2017-06-19 22:50:29: Total calculation time: 55421 ms.
2017-06-19 22:50:29: 100.00% completed.
2017-06-19 22:50:29: End of calculation.
2017-06-19 22:50:29: Total calculation time: 55457 ms.
2017-06-19 22:50:29: 100.00% completed.
2017-06-19 22:50:29: End of calculation.
2017-06-19 22:50:29: Total calculation time: 55460 ms.
2017-06-19 22:50:29: 100.00% completed.
2017-06-19 22:50:29: End of calculation.
2017-06-19 22:50:29: Total calculation time: 55463 ms.
2017-06-19 22:50:29: 100.00% completed.
2017-06-19 22:50:29: End of calculation.
2017-06-19 22:50:29: Total calculation time: 55555 ms.
2017-06-19 22:50:29: 100.00% completed.
2017-06-19 22:50:29: End of calculation.
2017-06-19 22:50:29: Total calculation time: 55595 ms.
2017-06-19 22:50:29: 100.00% completed.
2017-06-19 22:50:29: End of calculation.
2017-06-19 22:50:29: Total calculation time: 55630 ms.
2017-06-19 22:50:29: 100.00% completed.
2017-06-19 22:50:29: End of calculation.
2017-06-19 22:50:29: Total calculation time: 55665 ms.
2017-06-19 22:50:29: 100.00% completed.
2017-06-19 22:50:29: End of calculation.
2017-06-19 22:50:29: Total calculation time: 55668 ms.
2017-06-19 22:50:29: 100.00% completed.
2017-06-19 22:50:29: End of calculation.
2017-06-19 22:50:29: Total calculation time: 55704 ms.
2017-06-19 22:50:29: 100.00% completed.
2017-06-19 22:50:29: End of calculation.
2017-06-19 22:50:29: Total calculation time: 55727 ms.
2017-06-19 22:50:29: 100.00% completed.
2017-06-19 22:50:29: End of calculation.
2017-06-19 22:50:29: Total calculation time: 55775 ms.
2017-06-19 22:50:29: 100.00% completed.
2017-06-19 22:50:29: End of calculation.
2017-06-19 22:50:29: Total calculation time: 55803 ms.
2017-06-19 22:50:29: 100.00% completed.
2017-06-19 22:50:29: End of calculation.
2017-06-19 22:50:29: Total calculation time: 55807 ms.
2017-06-19 22:50:29: 100.00% completed.
2017-06-19 22:50:29: End of calculation.
2017-06-19 22:50:29: Total calculation time: 55846 ms.
2017-06-19 22:50:29: 100.00% completed.
2017-06-19 22:50:29: End of calculation.
2017-06-19 22:50:29: Total calculation time: 55850 ms.
2017-06-19 22:50:29: 100.00% completed.
2017-06-19 22:50:29: End of calculation.
2017-06-19 22:50:29: Total calculation time: 55904 ms.
2017-06-19 22:50:29: 100.00% completed.
2017-06-19 22:50:29: End of calculation.
2017-06-19 22:50:29: Total calculation time: 55923 ms.
2017-06-19 22:50:29: 100.00% completed.
2017-06-19 22:50:29: End of calculation.
2017-06-19 22:50:29: Total calculation time: 55975 ms.
2017-06-19 22:50:29: 100.00% completed.
2017-06-19 22:50:29: End of calculation.
2017-06-19 22:50:29: Total calculation time: 55979 ms.
2017-06-19 22:50:29: 100.00% completed.
2017-06-19 22:50:29: End of calculation.
2017-06-19 22:50:29: Total calculation time: 56048 ms.
2017-06-19 22:50:29: 100.00% completed.
2017-06-19 22:50:29: End of calculation.
2017-06-19 22:50:29: Total calculation time: 56051 ms.
2017-06-19 22:50:29: 100.00% completed.
2017-06-19 22:50:29: End of calculation.
2017-06-19 22:50:29: Total calculation time: 56110 ms.
2017-06-19 22:50:29: 100.00% completed.
2017-06-19 22:50:29: End of calculation.
2017-06-19 22:50:29: Total calculation time: 56174 ms.
2017-06-19 22:50:29: 100.00% completed.
2017-06-19 22:50:29: End of calculation.
2017-06-19 22:50:29: Total calculation time: 56194 ms.
2017-06-19 22:50:29: 100.00% completed.
2017-06-19 22:50:29: End of calculation.
2017-06-19 22:50:29: Total calculation time: 56196 ms.
2017-06-19 22:50:30: 100.00% completed.
2017-06-19 22:50:30: End of calculation.
2017-06-19 22:50:30: Total calculation time: 56254 ms.
2017-06-19 22:50:30: 100.00% completed.
2017-06-19 22:50:30: End of calculation.
2017-06-19 22:50:30: Total calculation time: 56262 ms.
2017-06-19 22:50:30: 100.00% completed.
2017-06-19 22:50:30: End of calculation.
2017-06-19 22:50:30: Total calculation time: 56360 ms.
2017-06-19 22:50:30: 100.00% completed.
2017-06-19 22:50:30: End of calculation.
2017-06-19 22:50:30: Total calculation time: 56362 ms.
2017-06-19 22:50:30: 100.00% completed.
2017-06-19 22:50:30: End of calculation.
2017-06-19 22:50:30: Total calculation time: 56401 ms.
2017-06-19 22:50:30: 100.00% completed.
2017-06-19 22:50:30: End of calculation.
2017-06-19 22:50:30: Total calculation time: 56449 ms.
2017-06-19 22:50:30: 100.00% completed.
2017-06-19 22:50:30: End of calculation.
2017-06-19 22:50:30: Total calculation time: 56453 ms.
2017-06-19 22:50:30: 100.00% completed.
2017-06-19 22:50:30: End of calculation.
2017-06-19 22:50:30: Total calculation time: 56530 ms.
2017-06-19 22:50:30: 100.00% completed.
2017-06-19 22:50:30: End of calculation.
2017-06-19 22:50:30: Total calculation time: 56533 ms.
2017-06-19 22:50:30: 100.00% completed.
2017-06-19 22:50:30: End of calculation.
2017-06-19 22:50:30: Total calculation time: 56536 ms.
2017-06-19 22:50:30: 100.00% completed.
2017-06-19 22:50:30: End of calculation.
2017-06-19 22:50:30: Total calculation time: 56593 ms.
2017-06-19 22:50:30: 100.00% completed.
2017-06-19 22:50:30: End of calculation.
2017-06-19 22:50:30: Total calculation time: 56597 ms.
2017-06-19 22:50:30: 100.00% completed.
2017-06-19 22:50:30: End of calculation.
2017-06-19 22:50:30: Total calculation time: 56657 ms.
2017-06-19 22:50:30: 100.00% completed.
2017-06-19 22:50:30: End of calculation.
2017-06-19 22:50:30: Total calculation time: 56683 ms.
2017-06-19 22:50:30: 100.00% completed.
2017-06-19 22:50:30: End of calculation.
2017-06-19 22:50:30: Total calculation time: 56756 ms.
2017-06-19 22:50:30: 100.00% completed.
2017-06-19 22:50:30: End of calculation.
2017-06-19 22:50:30: Total calculation time: 56760 ms.
2017-06-19 22:50:30: 100.00% completed.
2017-06-19 22:50:30: End of calculation.
2017-06-19 22:50:30: Total calculation time: 56765 ms.
2017-06-19 22:50:30: 100.00% completed.
2017-06-19 22:50:30: End of calculation.
2017-06-19 22:50:30: Total calculation time: 56844 ms.
2017-06-19 22:50:30: 100.00% completed.
2017-06-19 22:50:30: End of calculation.
2017-06-19 22:50:30: Total calculation time: 56872 ms.
2017-06-19 22:50:30: 100.00% completed.
2017-06-19 22:50:30: End of calculation.
2017-06-19 22:50:30: Total calculation time: 56903 ms.
2017-06-19 22:50:30: 100.00% completed.
2017-06-19 22:50:30: End of calculation.
2017-06-19 22:50:30: Total calculation time: 56942 ms.
2017-06-19 22:50:30: 100.00% completed.
2017-06-19 22:50:30: End of calculation.
2017-06-19 22:50:30: Total calculation time: 56973 ms.
2017-06-19 22:50:30: 100.00% completed.
2017-06-19 22:50:30: End of calculation.
2017-06-19 22:50:30: Total calculation time: 56976 ms.
2017-06-19 22:50:30: 100.00% completed.
2017-06-19 22:50:30: End of calculation.
2017-06-19 22:50:30: Total calculation time: 57033 ms.
2017-06-19 22:50:30: 100.00% completed.
2017-06-19 22:50:30: End of calculation.
2017-06-19 22:50:30: Total calculation time: 57036 ms.
2017-06-19 22:50:30: 100.00% completed.
2017-06-19 22:50:30: End of calculation.
2017-06-19 22:50:30: Total calculation time: 57135 ms.
2017-06-19 22:50:30: 100.00% completed.
2017-06-19 22:50:30: End of calculation.
2017-06-19 22:50:30: Total calculation time: 57185 ms.
2017-06-19 22:50:30: 100.00% completed.
2017-06-19 22:50:30: End of calculation.
2017-06-19 22:50:30: Total calculation time: 57189 ms.
2017-06-19 22:50:30: 100.00% completed.
2017-06-19 22:50:30: End of calculation.
2017-06-19 22:50:30: Total calculation time: 57253 ms.
2017-06-19 22:50:31: 100.00% completed.
2017-06-19 22:50:31: End of calculation.
2017-06-19 22:50:31: Total calculation time: 57256 ms.
2017-06-19 22:50:31: 100.00% completed.
2017-06-19 22:50:31: End of calculation.
2017-06-19 22:50:31: Total calculation time: 57304 ms.
2017-06-19 22:50:31: 100.00% completed.
2017-06-19 22:50:31: End of calculation.
2017-06-19 22:50:31: Total calculation time: 57343 ms.
2017-06-19 22:50:31: 100.00% completed.
2017-06-19 22:50:31: End of calculation.
2017-06-19 22:50:31: Total calculation time: 57346 ms.
2017-06-19 22:50:31: 100.00% completed.
2017-06-19 22:50:31: End of calculation.
2017-06-19 22:50:31: Total calculation time: 57447 ms.
2017-06-19 22:50:31: 100.00% completed.
2017-06-19 22:50:31: End of calculation.
2017-06-19 22:50:31: Total calculation time: 57452 ms.
2017-06-19 22:50:31: 100.00% completed.
2017-06-19 22:50:31: End of calculation.
2017-06-19 22:50:31: Total calculation time: 57516 ms.
2017-06-19 22:50:31: 100.00% completed.
2017-06-19 22:50:31: End of calculation.
2017-06-19 22:50:31: Total calculation time: 57518 ms.
2017-06-19 22:50:31: 100.00% completed.
2017-06-19 22:50:31: End of calculation.
2017-06-19 22:50:31: Total calculation time: 57591 ms.
2017-06-19 22:50:31: 100.00% completed.
2017-06-19 22:50:31: End of calculation.
2017-06-19 22:50:31: Total calculation time: 57599 ms.
2017-06-19 22:50:31: 100.00% completed.
2017-06-19 22:50:31: End of calculation.
2017-06-19 22:50:31: Total calculation time: 57603 ms.
2017-06-19 22:50:31: 100.00% completed.
2017-06-19 22:50:31: End of calculation.
2017-06-19 22:50:31: Total calculation time: 57673 ms.
2017-06-19 22:50:31: 100.00% completed.
2017-06-19 22:50:31: End of calculation.
2017-06-19 22:50:31: Total calculation time: 57728 ms.
2017-06-19 22:50:31: 100.00% completed.
2017-06-19 22:50:31: End of calculation.
2017-06-19 22:50:31: Total calculation time: 57731 ms.
2017-06-19 22:50:31: 100.00% completed.
2017-06-19 22:50:31: End of calculation.
2017-06-19 22:50:31: Total calculation time: 57798 ms.
2017-06-19 22:50:31: 100.00% completed.
2017-06-19 22:50:31: End of calculation.
2017-06-19 22:50:31: Total calculation time: 57834 ms.
2017-06-19 22:50:31: 100.00% completed.
2017-06-19 22:50:31: End of calculation.
2017-06-19 22:50:31: Total calculation time: 57838 ms.
2017-06-19 22:50:31: 100.00% completed.
2017-06-19 22:50:31: End of calculation.
2017-06-19 22:50:31: Total calculation time: 57901 ms.
2017-06-19 22:50:31: 100.00% completed.
2017-06-19 22:50:31: End of calculation.
2017-06-19 22:50:31: Total calculation time: 57904 ms.
2017-06-19 22:50:31: 100.00% completed.
2017-06-19 22:50:31: End of calculation.
2017-06-19 22:50:31: Total calculation time: 57939 ms.
2017-06-19 22:50:31: 100.00% completed.
2017-06-19 22:50:31: End of calculation.
2017-06-19 22:50:31: Total calculation time: 57942 ms.
2017-06-19 22:50:31: 100.00% completed.
2017-06-19 22:50:31: End of calculation.
2017-06-19 22:50:31: Total calculation time: 58013 ms.
done
computing RF ...
done
All done!
