computing MSdone
computing MS ...
TreeCmp version 1.0-b291

Active options:
Type of the analysis:  one-to-all comparison mode (-r)
Metrics:
  1. MatchingSplit (ms)
Input file: ../gene_trees/randprune/is.poly.gt.randprune.0.110.trees
Output file: ../results/is.poly.randprune.0.110.MS.dat
Additional options:
P - Prune compared trees if needed (trees can have different leaf sets).
-----
2017-06-19 22:55:23: Start of scanning input file: ../gene_trees/randprune/is.poly.gt.randprune.0.110.trees
2017-06-19 22:55:33: End of scanning input file: ../gene_trees/randprune/is.poly.gt.randprune.0.110.trees
2017-06-19 22:55:33: 1478 valid trees found in file: ../gene_trees/randprune/is.poly.gt.randprune.0.110.trees
2017-06-19 22:55:33: Start of calculation...please wait...
2017-06-19 22:55:33: 0.00% completed...
2017-06-19 22:55:37: 5.01% completed...
2017-06-19 22:55:39: 10.01% completed...
2017-06-19 22:55:41: 15.02% completed...
2017-06-19 22:55:44: 20.03% completed...
2017-06-19 22:55:45: 25.03% completed...
2017-06-19 22:55:47: 30.04% completed...
2017-06-19 22:55:49: 35.05% completed...
2017-06-19 22:55:51: 40.05% completed...
2017-06-19 22:55:53: 45.06% completed...
2017-06-19 22:55:55: 50.07% completed...
2017-06-19 22:55:58: 55.07% completed...
2017-06-19 22:55:59: 60.08% completed...
2017-06-19 22:56:02: 65.09% completed...
2017-06-19 22:56:04: 70.09% completed...
2017-06-19 22:56:06: 75.10% completed...
2017-06-19 22:56:08: 80.11% completed...
2017-06-19 22:56:09: 85.12% completed...
2017-06-19 22:56:12: 90.12% completed...
2017-06-19 22:56:14: 95.13% completed...
2017-06-19 22:56:16: 100.00% completed.
2017-06-19 22:56:16: End of calculation.
2017-06-19 22:56:16: Total calculation time: 42455 ms.
done
computing RF ...
done
All done!
9:43: End of calculation.
2017-06-19 22:49:43: Total calculation time: 36844 ms.
2017-06-19 22:49:43: 100.00% completed.
2017-06-19 22:49:43: End of calculation.
2017-06-19 22:49:43: Total calculation time: 36961 ms.
2017-06-19 22:49:43: 100.00% completed.
2017-06-19 22:49:43: End of calculation.
2017-06-19 22:49:43: Total calculation time: 37006 ms.
2017-06-19 22:49:43: 100.00% completed.
2017-06-19 22:49:43: End of calculation.
2017-06-19 22:49:43: Total calculation time: 37081 ms.
2017-06-19 22:49:43: 100.00% completed.
2017-06-19 22:49:43: End of calculation.
2017-06-19 22:49:43: Total calculation time: 37121 ms.
2017-06-19 22:49:43: 100.00% completed.
2017-06-19 22:49:43: End of calculation.
2017-06-19 22:49:43: Total calculation time: 37177 ms.
2017-06-19 22:49:43: 100.00% completed.
2017-06-19 22:49:43: End of calculation.
2017-06-19 22:49:43: Total calculation time: 37233 ms.
2017-06-19 22:49:43: 100.00% completed.
2017-06-19 22:49:43: End of calculation.
2017-06-19 22:49:43: Total calculation time: 37257 ms.
2017-06-19 22:49:44: 100.00% completed.
2017-06-19 22:49:44: End of calculation.
2017-06-19 22:49:44: Total calculation time: 37342 ms.
2017-06-19 22:49:44: 100.00% completed.
2017-06-19 22:49:44: End of calculation.
2017-06-19 22:49:44: Total calculation time: 37357 ms.
2017-06-19 22:49:44: 100.00% completed.
2017-06-19 22:49:44: End of calculation.
2017-06-19 22:49:44: Total calculation time: 37359 ms.
2017-06-19 22:49:44: 100.00% completed.
2017-06-19 22:49:44: End of calculation.
2017-06-19 22:49:44: Total calculation time: 37447 ms.
2017-06-19 22:49:44: 100.00% completed.
2017-06-19 22:49:44: End of calculation.
2017-06-19 22:49:44: Total calculation time: 37495 ms.
2017-06-19 22:49:44: 100.00% completed.
2017-06-19 22:49:44: End of calculation.
2017-06-19 22:49:44: Total calculation time: 37506 ms.
2017-06-19 22:49:44: 100.00% completed.
2017-06-19 22:49:44: End of calculation.
2017-06-19 22:49:44: Total calculation time: 37618 ms.
2017-06-19 22:49:44: 100.00% completed.
2017-06-19 22:49:44: End of calculation.
2017-06-19 22:49:44: Total calculation time: 37621 ms.
2017-06-19 22:49:44: 100.00% completed.
2017-06-19 22:49:44: End of calculation.
2017-06-19 22:49:44: Total calculation time: 37624 ms.
2017-06-19 22:49:44: 100.00% completed.
2017-06-19 22:49:44: End of calculation.
2017-06-19 22:49:44: Total calculation time: 37726 ms.
2017-06-19 22:49:44: 100.00% completed.
2017-06-19 22:49:44: End of calculation.
2017-06-19 22:49:44: Total calculation time: 37729 ms.
2017-06-19 22:49:44: 100.00% completed.
2017-06-19 22:49:44: End of calculation.
2017-06-19 22:49:44: Total calculation time: 37795 ms.
2017-06-19 22:49:44: 100.00% completed.
2017-06-19 22:49:44: End of calculation.
2017-06-19 22:49:44: Total calculation time: 37798 ms.
2017-06-19 22:49:44: 100.00% completed.
2017-06-19 22:49:44: End of calculation.
2017-06-19 22:49:44: Total calculation time: 37801 ms.
2017-06-19 22:49:44: 100.00% completed.
2017-06-19 22:49:44: End of calculation.
2017-06-19 22:49:44: Total calculation time: 37918 ms.
2017-06-19 22:49:44: 100.00% completed.
2017-06-19 22:49:44: End of calculation.
2017-06-19 22:49:44: Total calculation time: 37921 ms.
2017-06-19 22:49:44: 100.00% completed.
2017-06-19 22:49:44: End of calculation.
2017-06-19 22:49:44: Total calculation time: 38004 ms.
2017-06-19 22:49:44: 100.00% completed.
2017-06-19 22:49:44: End of calculation.
2017-06-19 22:49:44: Total calculation time: 38008 ms.
2017-06-19 22:49:44: 100.00% completed.
2017-06-19 22:49:44: End of calculation.
2017-06-19 22:49:44: Total calculation time: 38155 ms.
2017-06-19 22:49:44: 100.00% completed.
2017-06-19 22:49:44: End of calculation.
2017-06-19 22:49:44: Total calculation time: 38226 ms.
2017-06-19 22:49:44: 100.00% completed.
2017-06-19 22:49:44: End of calculation.
2017-06-19 22:49:44: Total calculation time: 38229 ms.
2017-06-19 22:49:44: 100.00% completed.
2017-06-19 22:49:44: End of calculation.
2017-06-19 22:49:44: Total calculation time: 38288 ms.
2017-06-19 22:49:44: 100.00% completed.
2017-06-19 22:49:44: End of calculation.
2017-06-19 22:49:44: Total calculation time: 38291 ms.
2017-06-19 22:49:45: 100.00% completed.
2017-06-19 22:49:45: End of calculation.
2017-06-19 22:49:45: Total calculation time: 38377 ms.
2017-06-19 22:49:45: 100.00% completed.
2017-06-19 22:49:45: End of calculation.
2017-06-19 22:49:45: Total calculation time: 38475 ms.
2017-06-19 22:49:45: 100.00% completed.
2017-06-19 22:49:45: End of calculation.
2017-06-19 22:49:45: Total calculation time: 38478 ms.
2017-06-19 22:49:45: 100.00% completed.
2017-06-19 22:49:45: End of calculation.
2017-06-19 22:49:45: Total calculation time: 38488 ms.
2017-06-19 22:49:45: 100.00% completed.
2017-06-19 22:49:45: End of calculation.
2017-06-19 22:49:45: Total calculation time: 38602 ms.
2017-06-19 22:49:45: 100.00% completed.
2017-06-19 22:49:45: End of calculation.
2017-06-19 22:49:45: Total calculation time: 38605 ms.
2017-06-19 22:49:45: 100.00% completed.
2017-06-19 22:49:45: End of calculation.
2017-06-19 22:49:45: Total calculation time: 38696 ms.
2017-06-19 22:49:45: 100.00% completed.
2017-06-19 22:49:45: End of calculation.
2017-06-19 22:49:45: Total calculation time: 38702 ms.
2017-06-19 22:49:45: 100.00% completed.
2017-06-19 22:49:45: End of calculation.
2017-06-19 22:49:45: Total calculation time: 38704 ms.
2017-06-19 22:49:45: 100.00% completed.
2017-06-19 22:49:45: End of calculation.
2017-06-19 22:49:45: Total calculation time: 38847 ms.
2017-06-19 22:49:45: 100.00% completed.
2017-06-19 22:49:45: End of calculation.
2017-06-19 22:49:45: Total calculation time: 38849 ms.
2017-06-19 22:49:45: 100.00% completed.
2017-06-19 22:49:45: End of calculation.
2017-06-19 22:49:45: Total calculation time: 38851 ms.
2017-06-19 22:49:45: 100.00% completed.
2017-06-19 22:49:45: End of calculation.
2017-06-19 22:49:45: Total calculation time: 38927 ms.
2017-06-19 22:49:45: 100.00% completed.
2017-06-19 22:49:45: End of calculation.
2017-06-19 22:49:45: Total calculation time: 38983 ms.
2017-06-19 22:49:45: 100.00% completed.
2017-06-19 22:49:45: End of calculation.
2017-06-19 22:49:45: Total calculation time: 39042 ms.
2017-06-19 22:49:45: 100.00% completed.
2017-06-19 22:49:45: End of calculation.
2017-06-19 22:49:45: Total calculation time: 39086 ms.
2017-06-19 22:49:45: 100.00% completed.
2017-06-19 22:49:45: End of calculation.
2017-06-19 22:49:45: Total calculation time: 39088 ms.
2017-06-19 22:49:45: 100.00% completed.
2017-06-19 22:49:45: End of calculation.
2017-06-19 22:49:45: Total calculation time: 39126 ms.
2017-06-19 22:49:45: 100.00% completed.
2017-06-19 22:49:45: End of calculation.
2017-06-19 22:49:45: Total calculation time: 39129 ms.
2017-06-19 22:49:45: 100.00% completed.
2017-06-19 22:49:45: End of calculation.
2017-06-19 22:49:45: Total calculation time: 39196 ms.
2017-06-19 22:49:45: 100.00% completed.
2017-06-19 22:49:45: End of calculation.
2017-06-19 22:49:45: Total calculation time: 39240 ms.
2017-06-19 22:49:45: 100.00% completed.
2017-06-19 22:49:45: End of calculation.
2017-06-19 22:49:45: Total calculation time: 39242 ms.
2017-06-19 22:49:45: 100.00% completed.
2017-06-19 22:49:45: End of calculation.
2017-06-19 22:49:45: Total calculation time: 39284 ms.
2017-06-19 22:49:46: 100.00% completed.
2017-06-19 22:49:46: End of calculation.
2017-06-19 22:49:46: Total calculation time: 39323 ms.
done
computing RF ...
done
All done!
