compute MS
TreeCmp version 1.0-b291

Active options:
Type of the analysis:  one-to-all comparison mode (-r)
Metrics:
  1. MatchingSplit (ms)
Input file: ../gene_trees/rooted_pruning/is.poly.gt.trees.2.72.trees
Output file: ../results/is.poly.trees.2.72.MS.dat
Additional options:
P - Prune compared trees if needed (trees can have different leaf sets).
-----
2017-06-19 22:14:40: Start of scanning input file: ../gene_trees/rooted_pruning/is.poly.gt.trees.2.72.trees
2017-06-19 22:14:55: End of scanning input file: ../gene_trees/rooted_pruning/is.poly.gt.trees.2.72.trees
2017-06-19 22:14:55: 1478 valid trees found in file: ../gene_trees/rooted_pruning/is.poly.gt.trees.2.72.trees
2017-06-19 22:14:55: Start of calculation...please wait...
2017-06-19 22:14:55: 0.00% completed...
2017-06-19 22:15:04: 5.01% completed...
2017-06-19 22:15:08: 10.01% completed...
2017-06-19 22:15:11: 15.02% completed...
2017-06-19 22:15:14: 20.03% completed...
2017-06-19 22:15:17: 25.03% completed...
2017-06-19 22:15:20: 30.04% completed...
2017-06-19 22:15:22: 35.05% completed...
2017-06-19 22:15:25: 40.05% completed...
2017-06-19 22:15:27: 45.06% completed...
2017-06-19 22:15:30: 50.07% completed...
2017-06-19 22:15:33: 55.07% completed...
2017-06-19 22:15:35: 60.08% completed...
2017-06-19 22:15:38: 65.09% completed...
2017-06-19 22:15:40: 70.09% completed...
2017-06-19 22:15:43: 75.10% completed...
2017-06-19 22:15:46: 80.11% completed...
2017-06-19 22:15:48: 85.12% completed...
2017-06-19 22:15:51: 90.12% completed...
2017-06-19 22:15:53: 95.13% completed...
2017-06-19 22:15:56: 100.00% completed.
2017-06-19 22:15:56: End of calculation.
2017-06-19 22:15:56: Total calculation time: 60782 ms.
compute RF
