computing MSdone
computing MS ...
TreeCmp version 1.0-b291

Active options:
Type of the analysis:  one-to-all comparison mode (-r)
Metrics:
  1. MatchingSplit (ms)
Input file: ../gene_trees/randprune/is.poly.gt.randprune.0.080.trees
Output file: ../results/is.poly.randprune.0.080.MS.dat
Additional options:
P - Prune compared trees if needed (trees can have different leaf sets).
-----
2017-06-19 22:53:51: Start of scanning input file: ../gene_trees/randprune/is.poly.gt.randprune.0.080.trees
2017-06-19 22:54:03: End of scanning input file: ../gene_trees/randprune/is.poly.gt.randprune.0.080.trees
2017-06-19 22:54:03: 1478 valid trees found in file: ../gene_trees/randprune/is.poly.gt.randprune.0.080.trees
2017-06-19 22:54:03: Start of calculation...please wait...
2017-06-19 22:54:03: 0.00% completed...
2017-06-19 22:54:07: 5.01% completed...
2017-06-19 22:54:10: 10.01% completed...
2017-06-19 22:54:12: 15.02% completed...
2017-06-19 22:54:14: 20.03% completed...
2017-06-19 22:54:16: 25.03% completed...
2017-06-19 22:54:18: 30.04% completed...
2017-06-19 22:54:20: 35.05% completed...
2017-06-19 22:54:22: 40.05% completed...
2017-06-19 22:54:24: 45.06% completed...
2017-06-19 22:54:27: 50.07% completed...
2017-06-19 22:54:29: 55.07% completed...
2017-06-19 22:54:31: 60.08% completed...
2017-06-19 22:54:33: 65.09% completed...
2017-06-19 22:54:35: 70.09% completed...
2017-06-19 22:54:37: 75.10% completed...
2017-06-19 22:54:39: 80.11% completed...
2017-06-19 22:54:42: 85.12% completed...
2017-06-19 22:54:44: 90.12% completed...
2017-06-19 22:54:47: 95.13% completed...
2017-06-19 22:54:49: 100.00% completed.
2017-06-19 22:54:49: End of calculation.
2017-06-19 22:54:49: Total calculation time: 46013 ms.
done
computing RF ...
done
All done!
9:51: End of calculation.
2017-06-19 22:49:51: Total calculation time: 42761 ms.
2017-06-19 22:49:51: 100.00% completed.
2017-06-19 22:49:51: End of calculation.
2017-06-19 22:49:51: Total calculation time: 42813 ms.
2017-06-19 22:49:51: 100.00% completed.
2017-06-19 22:49:51: End of calculation.
2017-06-19 22:49:51: Total calculation time: 42817 ms.
2017-06-19 22:49:51: 100.00% completed.
2017-06-19 22:49:51: End of calculation.
2017-06-19 22:49:51: Total calculation time: 42877 ms.
2017-06-19 22:49:51: 100.00% completed.
2017-06-19 22:49:51: End of calculation.
2017-06-19 22:49:51: Total calculation time: 42880 ms.
2017-06-19 22:49:52: 100.00% completed.
2017-06-19 22:49:52: End of calculation.
2017-06-19 22:49:52: Total calculation time: 42957 ms.
2017-06-19 22:49:52: 100.00% completed.
2017-06-19 22:49:52: End of calculation.
2017-06-19 22:49:52: Total calculation time: 43013 ms.
2017-06-19 22:49:52: 100.00% completed.
2017-06-19 22:49:52: End of calculation.
2017-06-19 22:49:52: Total calculation time: 43017 ms.
2017-06-19 22:49:52: 100.00% completed.
2017-06-19 22:49:52: End of calculation.
2017-06-19 22:49:52: Total calculation time: 43099 ms.
2017-06-19 22:49:52: 100.00% completed.
2017-06-19 22:49:52: End of calculation.
2017-06-19 22:49:52: Total calculation time: 43104 ms.
2017-06-19 22:49:52: 100.00% completed.
2017-06-19 22:49:52: End of calculation.
2017-06-19 22:49:52: Total calculation time: 43197 ms.
2017-06-19 22:49:52: 100.00% completed.
2017-06-19 22:49:52: End of calculation.
2017-06-19 22:49:52: Total calculation time: 43201 ms.
2017-06-19 22:49:52: 100.00% completed.
2017-06-19 22:49:52: End of calculation.
2017-06-19 22:49:52: Total calculation time: 43313 ms.
2017-06-19 22:49:52: 100.00% completed.
2017-06-19 22:49:52: End of calculation.
2017-06-19 22:49:52: Total calculation time: 43323 ms.
2017-06-19 22:49:52: 100.00% completed.
2017-06-19 22:49:52: End of calculation.
2017-06-19 22:49:52: Total calculation time: 43325 ms.
2017-06-19 22:49:52: 100.00% completed.
2017-06-19 22:49:52: End of calculation.
2017-06-19 22:49:52: Total calculation time: 43402 ms.
2017-06-19 22:49:52: 100.00% completed.
2017-06-19 22:49:52: End of calculation.
2017-06-19 22:49:52: Total calculation time: 43404 ms.
2017-06-19 22:49:52: 100.00% completed.
2017-06-19 22:49:52: End of calculation.
2017-06-19 22:49:52: Total calculation time: 43497 ms.
2017-06-19 22:49:52: 100.00% completed.
2017-06-19 22:49:52: End of calculation.
2017-06-19 22:49:52: Total calculation time: 43536 ms.
2017-06-19 22:49:52: 100.00% completed.
2017-06-19 22:49:52: End of calculation.
2017-06-19 22:49:52: Total calculation time: 43541 ms.
2017-06-19 22:49:52: 100.00% completed.
2017-06-19 22:49:52: End of calculation.
2017-06-19 22:49:52: Total calculation time: 43667 ms.
2017-06-19 22:49:52: 100.00% completed.
2017-06-19 22:49:52: End of calculation.
2017-06-19 22:49:52: Total calculation time: 43746 ms.
2017-06-19 22:49:52: 100.00% completed.
2017-06-19 22:49:52: End of calculation.
2017-06-19 22:49:52: Total calculation time: 43798 ms.
2017-06-19 22:49:52: 100.00% completed.
2017-06-19 22:49:52: End of calculation.
2017-06-19 22:49:52: Total calculation time: 43800 ms.
2017-06-19 22:49:52: 100.00% completed.
2017-06-19 22:49:52: End of calculation.
2017-06-19 22:49:52: Total calculation time: 43855 ms.
2017-06-19 22:49:52: 100.00% completed.
2017-06-19 22:49:52: End of calculation.
2017-06-19 22:49:52: Total calculation time: 43902 ms.
2017-06-19 22:49:53: 100.00% completed.
2017-06-19 22:49:53: End of calculation.
2017-06-19 22:49:53: Total calculation time: 43991 ms.
2017-06-19 22:49:53: 100.00% completed.
2017-06-19 22:49:53: End of calculation.
2017-06-19 22:49:53: Total calculation time: 44002 ms.
2017-06-19 22:49:53: 100.00% completed.
2017-06-19 22:49:53: End of calculation.
2017-06-19 22:49:53: Total calculation time: 44062 ms.
2017-06-19 22:49:53: 100.00% completed.
2017-06-19 22:49:53: End of calculation.
2017-06-19 22:49:53: Total calculation time: 44065 ms.
2017-06-19 22:49:53: 100.00% completed.
2017-06-19 22:49:53: End of calculation.
2017-06-19 22:49:53: Total calculation time: 44068 ms.
2017-06-19 22:49:53: 100.00% completed.
2017-06-19 22:49:53: End of calculation.
2017-06-19 22:49:53: Total calculation time: 44137 ms.
2017-06-19 22:49:53: 100.00% completed.
2017-06-19 22:49:53: End of calculation.
2017-06-19 22:49:53: Total calculation time: 44143 ms.
2017-06-19 22:49:53: 100.00% completed.
2017-06-19 22:49:53: End of calculation.
2017-06-19 22:49:53: Total calculation time: 44181 ms.
2017-06-19 22:49:53: 100.00% completed.
2017-06-19 22:49:53: End of calculation.
2017-06-19 22:49:53: Total calculation time: 44201 ms.
2017-06-19 22:49:53: 100.00% completed.
2017-06-19 22:49:53: End of calculation.
2017-06-19 22:49:53: Total calculation time: 44205 ms.
2017-06-19 22:49:53: 100.00% completed.
2017-06-19 22:49:53: End of calculation.
2017-06-19 22:49:53: Total calculation time: 44324 ms.
2017-06-19 22:49:53: 100.00% completed.
2017-06-19 22:49:53: End of calculation.
2017-06-19 22:49:53: Total calculation time: 44329 ms.
2017-06-19 22:49:53: 100.00% completed.
2017-06-19 22:49:53: End of calculation.
2017-06-19 22:49:53: Total calculation time: 44419 ms.
2017-06-19 22:49:53: 100.00% completed.
2017-06-19 22:49:53: End of calculation.
2017-06-19 22:49:53: Total calculation time: 44526 ms.
2017-06-19 22:49:53: 100.00% completed.
2017-06-19 22:49:53: End of calculation.
2017-06-19 22:49:53: Total calculation time: 44578 ms.
2017-06-19 22:49:53: 100.00% completed.
2017-06-19 22:49:53: End of calculation.
2017-06-19 22:49:53: Total calculation time: 44581 ms.
2017-06-19 22:49:53: 100.00% completed.
2017-06-19 22:49:53: End of calculation.
2017-06-19 22:49:53: Total calculation time: 44584 ms.
2017-06-19 22:49:53: 100.00% completed.
2017-06-19 22:49:53: End of calculation.
2017-06-19 22:49:53: Total calculation time: 44727 ms.
2017-06-19 22:49:53: 100.00% completed.
2017-06-19 22:49:53: End of calculation.
2017-06-19 22:49:53: Total calculation time: 44790 ms.
2017-06-19 22:49:53: 100.00% completed.
2017-06-19 22:49:53: End of calculation.
2017-06-19 22:49:53: Total calculation time: 44846 ms.
2017-06-19 22:49:53: 100.00% completed.
2017-06-19 22:49:53: End of calculation.
2017-06-19 22:49:53: Total calculation time: 44848 ms.
2017-06-19 22:49:53: 100.00% completed.
2017-06-19 22:49:53: End of calculation.
2017-06-19 22:49:53: Total calculation time: 44915 ms.
2017-06-19 22:49:53: 100.00% completed.
2017-06-19 22:49:53: End of calculation.
2017-06-19 22:49:53: Total calculation time: 44918 ms.
2017-06-19 22:49:53: 100.00% completed.
2017-06-19 22:49:53: End of calculation.
2017-06-19 22:49:53: Total calculation time: 44920 ms.
2017-06-19 22:49:54: 100.00% completed.
2017-06-19 22:49:54: End of calculation.
2017-06-19 22:49:54: Total calculation time: 45017 ms.
2017-06-19 22:49:54: 100.00% completed.
2017-06-19 22:49:54: End of calculation.
2017-06-19 22:49:54: Total calculation time: 45020 ms.
2017-06-19 22:49:54: 100.00% completed.
2017-06-19 22:49:54: End of calculation.
2017-06-19 22:49:54: Total calculation time: 45115 ms.
2017-06-19 22:49:54: 100.00% completed.
2017-06-19 22:49:54: End of calculation.
2017-06-19 22:49:54: Total calculation time: 45120 ms.
2017-06-19 22:49:54: 100.00% completed.
2017-06-19 22:49:54: End of calculation.
2017-06-19 22:49:54: Total calculation time: 45199 ms.
2017-06-19 22:49:54: 100.00% completed.
2017-06-19 22:49:54: End of calculation.
2017-06-19 22:49:54: Total calculation time: 45262 ms.
2017-06-19 22:49:54: 100.00% completed.
2017-06-19 22:49:54: End of calculation.
2017-06-19 22:49:54: Total calculation time: 45265 ms.
2017-06-19 22:49:54: 100.00% completed.
2017-06-19 22:49:54: End of calculation.
2017-06-19 22:49:54: Total calculation time: 45270 ms.
2017-06-19 22:49:54: 100.00% completed.
2017-06-19 22:49:54: End of calculation.
2017-06-19 22:49:54: Total calculation time: 45273 ms.
2017-06-19 22:49:54: 100.00% completed.
2017-06-19 22:49:54: End of calculation.
2017-06-19 22:49:54: Total calculation time: 45421 ms.
2017-06-19 22:49:54: 100.00% completed.
2017-06-19 22:49:54: End of calculation.
2017-06-19 22:49:54: Total calculation time: 45425 ms.
2017-06-19 22:49:54: 100.00% completed.
2017-06-19 22:49:54: End of calculation.
2017-06-19 22:49:54: Total calculation time: 45477 ms.
2017-06-19 22:49:54: 100.00% completed.
2017-06-19 22:49:54: End of calculation.
2017-06-19 22:49:54: Total calculation time: 45481 ms.
2017-06-19 22:49:54: 100.00% completed.
2017-06-19 22:49:54: End of calculation.
2017-06-19 22:49:54: Total calculation time: 45590 ms.
2017-06-19 22:49:54: 100.00% completed.
2017-06-19 22:49:54: End of calculation.
2017-06-19 22:49:54: Total calculation time: 45593 ms.
2017-06-19 22:49:54: 100.00% completed.
2017-06-19 22:49:54: End of calculation.
2017-06-19 22:49:54: Total calculation time: 45660 ms.
2017-06-19 22:49:54: 100.00% completed.
2017-06-19 22:49:54: End of calculation.
2017-06-19 22:49:54: Total calculation time: 45720 ms.
2017-06-19 22:49:54: 100.00% completed.
2017-06-19 22:49:54: End of calculation.
2017-06-19 22:49:54: Total calculation time: 45766 ms.
done
computing RF ...
done
All done!
