computing MSdone
computing MS ...
TreeCmp version 1.0-b291

Active options:
Type of the analysis:  one-to-all comparison mode (-r)
Metrics:
  1. MatchingSplit (ms)
Input file: ../gene_trees/randprune/is.poly.gt.randprune.0.040.trees
Output file: ../results/is.poly.randprune.0.040.MS.dat
Additional options:
P - Prune compared trees if needed (trees can have different leaf sets).
-----
2017-06-19 22:50:17: Start of scanning input file: ../gene_trees/randprune/is.poly.gt.randprune.0.040.trees
2017-06-19 22:50:28: End of scanning input file: ../gene_trees/randprune/is.poly.gt.randprune.0.040.trees
2017-06-19 22:50:28: 1478 valid trees found in file: ../gene_trees/randprune/is.poly.gt.randprune.0.040.trees
2017-06-19 22:50:29: Start of calculation...please wait...
2017-06-19 22:50:29: 0.00% completed...
2017-06-19 22:50:33: 5.01% completed...
2017-06-19 22:50:36: 10.01% completed...
2017-06-19 22:50:38: 15.02% completed...
2017-06-19 22:50:41: 20.03% completed...
2017-06-19 22:50:43: 25.03% completed...
2017-06-19 22:50:45: 30.04% completed...
2017-06-19 22:50:47: 35.05% completed...
2017-06-19 22:50:50: 40.05% completed...
2017-06-19 22:50:52: 45.06% completed...
2017-06-19 22:50:54: 50.07% completed...
2017-06-19 22:50:56: 55.07% completed...
2017-06-19 22:50:59: 60.08% completed...
2017-06-19 22:51:01: 65.09% completed...
2017-06-19 22:51:03: 70.09% completed...
2017-06-19 22:51:05: 75.10% completed...
2017-06-19 22:51:07: 80.11% completed...
2017-06-19 22:51:10: 85.12% completed...
2017-06-19 22:51:12: 90.12% completed...
2017-06-19 22:51:14: 95.13% completed...
2017-06-19 22:51:16: 100.00% completed.
2017-06-19 22:51:16: End of calculation.
2017-06-19 22:51:16: Total calculation time: 47901 ms.
done
computing RF ...
done
All done!
50:33: End of calculation.
2017-06-19 22:50:33: Total calculation time: 55190 ms.
2017-06-19 22:50:33: 100.00% completed.
2017-06-19 22:50:33: End of calculation.
2017-06-19 22:50:33: Total calculation time: 55264 ms.
2017-06-19 22:50:33: 100.00% completed.
2017-06-19 22:50:33: End of calculation.
2017-06-19 22:50:33: Total calculation time: 55340 ms.
2017-06-19 22:50:33: 100.00% completed.
2017-06-19 22:50:33: End of calculation.
2017-06-19 22:50:33: Total calculation time: 55344 ms.
2017-06-19 22:50:33: 100.00% completed.
2017-06-19 22:50:33: End of calculation.
2017-06-19 22:50:33: Total calculation time: 55420 ms.
2017-06-19 22:50:33: 100.00% completed.
2017-06-19 22:50:33: End of calculation.
2017-06-19 22:50:33: Total calculation time: 55471 ms.
2017-06-19 22:50:33: 100.00% completed.
2017-06-19 22:50:33: End of calculation.
2017-06-19 22:50:33: Total calculation time: 55474 ms.
2017-06-19 22:50:34: 100.00% completed.
2017-06-19 22:50:34: End of calculation.
2017-06-19 22:50:34: Total calculation time: 55522 ms.
2017-06-19 22:50:34: 100.00% completed.
2017-06-19 22:50:34: End of calculation.
2017-06-19 22:50:34: Total calculation time: 55581 ms.
2017-06-19 22:50:34: 100.00% completed.
2017-06-19 22:50:34: End of calculation.
2017-06-19 22:50:34: Total calculation time: 55584 ms.
2017-06-19 22:50:34: 100.00% completed.
2017-06-19 22:50:34: End of calculation.
2017-06-19 22:50:34: Total calculation time: 55644 ms.
2017-06-19 22:50:34: 100.00% completed.
2017-06-19 22:50:34: End of calculation.
2017-06-19 22:50:34: Total calculation time: 55694 ms.
2017-06-19 22:50:34: 100.00% completed.
2017-06-19 22:50:34: End of calculation.
2017-06-19 22:50:34: Total calculation time: 55701 ms.
2017-06-19 22:50:34: 100.00% completed.
2017-06-19 22:50:34: End of calculation.
2017-06-19 22:50:34: Total calculation time: 55791 ms.
2017-06-19 22:50:34: 100.00% completed.
2017-06-19 22:50:34: End of calculation.
2017-06-19 22:50:34: Total calculation time: 55870 ms.
2017-06-19 22:50:34: 100.00% completed.
2017-06-19 22:50:34: End of calculation.
2017-06-19 22:50:34: Total calculation time: 55875 ms.
2017-06-19 22:50:34: 100.00% completed.
2017-06-19 22:50:34: End of calculation.
2017-06-19 22:50:34: Total calculation time: 55938 ms.
2017-06-19 22:50:34: 100.00% completed.
2017-06-19 22:50:34: End of calculation.
2017-06-19 22:50:34: Total calculation time: 55941 ms.
2017-06-19 22:50:34: 100.00% completed.
2017-06-19 22:50:34: End of calculation.
2017-06-19 22:50:34: Total calculation time: 55944 ms.
2017-06-19 22:50:34: 100.00% completed.
2017-06-19 22:50:34: End of calculation.
2017-06-19 22:50:34: Total calculation time: 56005 ms.
2017-06-19 22:50:34: 100.00% completed.
2017-06-19 22:50:34: End of calculation.
2017-06-19 22:50:34: Total calculation time: 56009 ms.
2017-06-19 22:50:34: 100.00% completed.
2017-06-19 22:50:34: End of calculation.
2017-06-19 22:50:34: Total calculation time: 56139 ms.
2017-06-19 22:50:34: 100.00% completed.
2017-06-19 22:50:34: End of calculation.
2017-06-19 22:50:34: Total calculation time: 56142 ms.
2017-06-19 22:50:34: 100.00% completed.
2017-06-19 22:50:34: End of calculation.
2017-06-19 22:50:34: Total calculation time: 56210 ms.
2017-06-19 22:50:34: 100.00% completed.
2017-06-19 22:50:34: End of calculation.
2017-06-19 22:50:34: Total calculation time: 56251 ms.
2017-06-19 22:50:34: 100.00% completed.
2017-06-19 22:50:34: End of calculation.
2017-06-19 22:50:34: Total calculation time: 56254 ms.
2017-06-19 22:50:34: 100.00% completed.
2017-06-19 22:50:34: End of calculation.
2017-06-19 22:50:34: Total calculation time: 56369 ms.
2017-06-19 22:50:34: 100.00% completed.
2017-06-19 22:50:34: End of calculation.
2017-06-19 22:50:34: Total calculation time: 56379 ms.
2017-06-19 22:50:34: 100.00% completed.
2017-06-19 22:50:34: End of calculation.
2017-06-19 22:50:34: Total calculation time: 56463 ms.
2017-06-19 22:50:34: 100.00% completed.
2017-06-19 22:50:34: End of calculation.
2017-06-19 22:50:34: Total calculation time: 56467 ms.
2017-06-19 22:50:35: 100.00% completed.
2017-06-19 22:50:35: End of calculation.
2017-06-19 22:50:35: Total calculation time: 56599 ms.
2017-06-19 22:50:35: 100.00% completed.
2017-06-19 22:50:35: End of calculation.
2017-06-19 22:50:35: Total calculation time: 56610 ms.
2017-06-19 22:50:35: 100.00% completed.
2017-06-19 22:50:35: End of calculation.
2017-06-19 22:50:35: Total calculation time: 56658 ms.
2017-06-19 22:50:35: 100.00% completed.
2017-06-19 22:50:35: End of calculation.
2017-06-19 22:50:35: Total calculation time: 56778 ms.
2017-06-19 22:50:35: 100.00% completed.
2017-06-19 22:50:35: End of calculation.
2017-06-19 22:50:35: Total calculation time: 56789 ms.
2017-06-19 22:50:35: 100.00% completed.
2017-06-19 22:50:35: End of calculation.
2017-06-19 22:50:35: Total calculation time: 56922 ms.
2017-06-19 22:50:35: 100.00% completed.
2017-06-19 22:50:35: End of calculation.
2017-06-19 22:50:35: Total calculation time: 56964 ms.
2017-06-19 22:50:35: 100.00% completed.
2017-06-19 22:50:35: End of calculation.
2017-06-19 22:50:35: Total calculation time: 56971 ms.
2017-06-19 22:50:35: 100.00% completed.
2017-06-19 22:50:35: End of calculation.
2017-06-19 22:50:35: Total calculation time: 56975 ms.
2017-06-19 22:50:35: 100.00% completed.
2017-06-19 22:50:35: End of calculation.
2017-06-19 22:50:35: Total calculation time: 57110 ms.
2017-06-19 22:50:35: 100.00% completed.
2017-06-19 22:50:35: End of calculation.
2017-06-19 22:50:35: Total calculation time: 57155 ms.
2017-06-19 22:50:35: 100.00% completed.
2017-06-19 22:50:35: End of calculation.
2017-06-19 22:50:35: Total calculation time: 57158 ms.
2017-06-19 22:50:35: 100.00% completed.
2017-06-19 22:50:35: End of calculation.
2017-06-19 22:50:35: Total calculation time: 57253 ms.
2017-06-19 22:50:35: 100.00% completed.
2017-06-19 22:50:35: End of calculation.
2017-06-19 22:50:35: Total calculation time: 57317 ms.
2017-06-19 22:50:35: 100.00% completed.
2017-06-19 22:50:35: End of calculation.
2017-06-19 22:50:35: Total calculation time: 57320 ms.
2017-06-19 22:50:35: 100.00% completed.
2017-06-19 22:50:35: End of calculation.
2017-06-19 22:50:35: Total calculation time: 57400 ms.
2017-06-19 22:50:35: 100.00% completed.
2017-06-19 22:50:35: End of calculation.
2017-06-19 22:50:35: Total calculation time: 57404 ms.
2017-06-19 22:50:35: 100.00% completed.
2017-06-19 22:50:35: End of calculation.
2017-06-19 22:50:35: Total calculation time: 57479 ms.
2017-06-19 22:50:36: 100.00% completed.
2017-06-19 22:50:36: End of calculation.
2017-06-19 22:50:36: Total calculation time: 57534 ms.
2017-06-19 22:50:36: 100.00% completed.
2017-06-19 22:50:36: End of calculation.
2017-06-19 22:50:36: Total calculation time: 57602 ms.
2017-06-19 22:50:36: 100.00% completed.
2017-06-19 22:50:36: End of calculation.
2017-06-19 22:50:36: Total calculation time: 57605 ms.
2017-06-19 22:50:36: 100.00% completed.
2017-06-19 22:50:36: End of calculation.
2017-06-19 22:50:36: Total calculation time: 57639 ms.
2017-06-19 22:50:36: 100.00% completed.
2017-06-19 22:50:36: End of calculation.
2017-06-19 22:50:36: Total calculation time: 57705 ms.
2017-06-19 22:50:36: 100.00% completed.
2017-06-19 22:50:36: End of calculation.
2017-06-19 22:50:36: Total calculation time: 57717 ms.
2017-06-19 22:50:36: 100.00% completed.
2017-06-19 22:50:36: End of calculation.
2017-06-19 22:50:36: Total calculation time: 57841 ms.
2017-06-19 22:50:36: 100.00% completed.
2017-06-19 22:50:36: End of calculation.
2017-06-19 22:50:36: Total calculation time: 57849 ms.
2017-06-19 22:50:36: 100.00% completed.
2017-06-19 22:50:36: End of calculation.
2017-06-19 22:50:36: Total calculation time: 57930 ms.
2017-06-19 22:50:36: 100.00% completed.
2017-06-19 22:50:36: End of calculation.
2017-06-19 22:50:36: Total calculation time: 57935 ms.
2017-06-19 22:50:36: 100.00% completed.
2017-06-19 22:50:36: End of calculation.
2017-06-19 22:50:36: Total calculation time: 57999 ms.
2017-06-19 22:50:36: 100.00% completed.
2017-06-19 22:50:36: End of calculation.
2017-06-19 22:50:36: Total calculation time: 58002 ms.
2017-06-19 22:50:36: 100.00% completed.
2017-06-19 22:50:36: End of calculation.
2017-06-19 22:50:36: Total calculation time: 58082 ms.
2017-06-19 22:50:36: 100.00% completed.
2017-06-19 22:50:36: End of calculation.
2017-06-19 22:50:36: Total calculation time: 58133 ms.
2017-06-19 22:50:36: 100.00% completed.
2017-06-19 22:50:36: End of calculation.
2017-06-19 22:50:36: Total calculation time: 58181 ms.
2017-06-19 22:50:36: 100.00% completed.
2017-06-19 22:50:36: End of calculation.
2017-06-19 22:50:36: Total calculation time: 58184 ms.
2017-06-19 22:50:36: 100.00% completed.
2017-06-19 22:50:36: End of calculation.
2017-06-19 22:50:36: Total calculation time: 58239 ms.
2017-06-19 22:50:36: 100.00% completed.
2017-06-19 22:50:36: End of calculation.
2017-06-19 22:50:36: Total calculation time: 58242 ms.
2017-06-19 22:50:36: 100.00% completed.
2017-06-19 22:50:36: End of calculation.
2017-06-19 22:50:36: Total calculation time: 58354 ms.
2017-06-19 22:50:36: 100.00% completed.
2017-06-19 22:50:36: End of calculation.
2017-06-19 22:50:36: Total calculation time: 58389 ms.
2017-06-19 22:50:36: 100.00% completed.
2017-06-19 22:50:36: End of calculation.
2017-06-19 22:50:36: Total calculation time: 58460 ms.
2017-06-19 22:50:36: 100.00% completed.
2017-06-19 22:50:37: End of calculation.
2017-06-19 22:50:37: Total calculation time: 58464 ms.
2017-06-19 22:50:37: 100.00% completed.
2017-06-19 22:50:37: End of calculation.
2017-06-19 22:50:37: Total calculation time: 58496 ms.
2017-06-19 22:50:37: 100.00% completed.
2017-06-19 22:50:37: End of calculation.
2017-06-19 22:50:37: Total calculation time: 58539 ms.
2017-06-19 22:50:37: 100.00% completed.
2017-06-19 22:50:37: End of calculation.
2017-06-19 22:50:37: Total calculation time: 58595 ms.
2017-06-19 22:50:37: 100.00% completed.
2017-06-19 22:50:37: End of calculation.
2017-06-19 22:50:37: Total calculation time: 58598 ms.
2017-06-19 22:50:37: 100.00% completed.
2017-06-19 22:50:37: End of calculation.
2017-06-19 22:50:37: Total calculation time: 58681 ms.
done
computing RF ...
done
All done!
