computing MSdone
computing MS ...
TreeCmp version 1.0-b291

Active options:
Type of the analysis:  one-to-all comparison mode (-r)
Metrics:
  1. MatchingSplit (ms)
Input file: ../gene_trees/randprune/is.poly.gt.randprune.0.105.trees
Output file: ../results/is.poly.randprune.0.105.MS.dat
Additional options:
P - Prune compared trees if needed (trees can have different leaf sets).
-----
2017-06-19 22:55:11: Start of scanning input file: ../gene_trees/randprune/is.poly.gt.randprune.0.105.trees
2017-06-19 22:55:21: End of scanning input file: ../gene_trees/randprune/is.poly.gt.randprune.0.105.trees
2017-06-19 22:55:21: 1478 valid trees found in file: ../gene_trees/randprune/is.poly.gt.randprune.0.105.trees
2017-06-19 22:55:21: Start of calculation...please wait...
2017-06-19 22:55:21: 0.00% completed...
2017-06-19 22:55:25: 5.01% completed...
2017-06-19 22:55:28: 10.01% completed...
2017-06-19 22:55:30: 15.02% completed...
2017-06-19 22:55:31: 20.03% completed...
2017-06-19 22:55:34: 25.03% completed...
2017-06-19 22:55:35: 30.04% completed...
2017-06-19 22:55:38: 35.05% completed...
2017-06-19 22:55:39: 40.05% completed...
2017-06-19 22:55:42: 45.06% completed...
2017-06-19 22:55:44: 50.07% completed...
2017-06-19 22:55:46: 55.07% completed...
2017-06-19 22:55:48: 60.08% completed...
2017-06-19 22:55:50: 65.09% completed...
2017-06-19 22:55:51: 70.09% completed...
2017-06-19 22:55:53: 75.10% completed...
2017-06-19 22:55:55: 80.11% completed...
2017-06-19 22:55:57: 85.12% completed...
2017-06-19 22:55:59: 90.12% completed...
2017-06-19 22:56:01: 95.13% completed...
2017-06-19 22:56:03: 100.00% completed.
2017-06-19 22:56:03: End of calculation.
2017-06-19 22:56:03: Total calculation time: 41987 ms.
done
computing RF ...
done
All done!
9:32: End of calculation.
2017-06-19 22:49:32: Total calculation time: 37221 ms.
2017-06-19 22:49:32: 100.00% completed.
2017-06-19 22:49:32: End of calculation.
2017-06-19 22:49:32: Total calculation time: 37301 ms.
2017-06-19 22:49:32: 100.00% completed.
2017-06-19 22:49:32: End of calculation.
2017-06-19 22:49:32: Total calculation time: 37305 ms.
2017-06-19 22:49:32: 100.00% completed.
2017-06-19 22:49:32: End of calculation.
2017-06-19 22:49:32: Total calculation time: 37469 ms.
2017-06-19 22:49:32: 100.00% completed.
2017-06-19 22:49:32: End of calculation.
2017-06-19 22:49:32: Total calculation time: 37473 ms.
2017-06-19 22:49:33: 100.00% completed.
2017-06-19 22:49:33: End of calculation.
2017-06-19 22:49:33: Total calculation time: 37554 ms.
2017-06-19 22:49:33: 100.00% completed.
2017-06-19 22:49:33: End of calculation.
2017-06-19 22:49:33: Total calculation time: 37598 ms.
2017-06-19 22:49:33: 100.00% completed.
2017-06-19 22:49:33: End of calculation.
2017-06-19 22:49:33: Total calculation time: 37678 ms.
2017-06-19 22:49:33: 100.00% completed.
2017-06-19 22:49:33: End of calculation.
2017-06-19 22:49:33: Total calculation time: 37688 ms.
2017-06-19 22:49:33: 100.00% completed.
2017-06-19 22:49:33: End of calculation.
2017-06-19 22:49:33: Total calculation time: 37758 ms.
2017-06-19 22:49:33: 100.00% completed.
2017-06-19 22:49:33: End of calculation.
2017-06-19 22:49:33: Total calculation time: 37762 ms.
2017-06-19 22:49:33: 100.00% completed.
2017-06-19 22:49:33: End of calculation.
2017-06-19 22:49:33: Total calculation time: 37904 ms.
2017-06-19 22:49:33: 100.00% completed.
2017-06-19 22:49:33: End of calculation.
2017-06-19 22:49:33: Total calculation time: 37909 ms.
2017-06-19 22:49:33: 100.00% completed.
2017-06-19 22:49:33: End of calculation.
2017-06-19 22:49:33: Total calculation time: 37964 ms.
2017-06-19 22:49:33: 100.00% completed.
2017-06-19 22:49:33: End of calculation.
2017-06-19 22:49:33: Total calculation time: 37967 ms.
2017-06-19 22:49:33: 100.00% completed.
2017-06-19 22:49:33: End of calculation.
2017-06-19 22:49:33: Total calculation time: 38051 ms.
2017-06-19 22:49:33: 100.00% completed.
2017-06-19 22:49:33: End of calculation.
2017-06-19 22:49:33: Total calculation time: 38055 ms.
2017-06-19 22:49:33: 100.00% completed.
2017-06-19 22:49:33: End of calculation.
2017-06-19 22:49:33: Total calculation time: 38132 ms.
2017-06-19 22:49:33: 100.00% completed.
2017-06-19 22:49:33: End of calculation.
2017-06-19 22:49:33: Total calculation time: 38135 ms.
2017-06-19 22:49:33: 100.00% completed.
2017-06-19 22:49:33: End of calculation.
2017-06-19 22:49:33: Total calculation time: 38216 ms.
2017-06-19 22:49:33: 100.00% completed.
2017-06-19 22:49:33: End of calculation.
2017-06-19 22:49:33: Total calculation time: 38220 ms.
2017-06-19 22:49:33: 100.00% completed.
2017-06-19 22:49:33: End of calculation.
2017-06-19 22:49:33: Total calculation time: 38320 ms.
2017-06-19 22:49:33: 100.00% completed.
2017-06-19 22:49:33: End of calculation.
2017-06-19 22:49:33: Total calculation time: 38376 ms.
2017-06-19 22:49:33: 100.00% completed.
2017-06-19 22:49:33: End of calculation.
2017-06-19 22:49:33: Total calculation time: 38379 ms.
2017-06-19 22:49:33: 100.00% completed.
2017-06-19 22:49:33: End of calculation.
2017-06-19 22:49:33: Total calculation time: 38441 ms.
2017-06-19 22:49:34: 100.00% completed.
2017-06-19 22:49:34: End of calculation.
2017-06-19 22:49:34: Total calculation time: 38524 ms.
2017-06-19 22:49:34: 100.00% completed.
2017-06-19 22:49:34: End of calculation.
2017-06-19 22:49:34: Total calculation time: 38559 ms.
2017-06-19 22:49:34: 100.00% completed.
2017-06-19 22:49:34: End of calculation.
2017-06-19 22:49:34: Total calculation time: 38574 ms.
2017-06-19 22:49:34: 100.00% completed.
2017-06-19 22:49:34: End of calculation.
2017-06-19 22:49:34: Total calculation time: 38619 ms.
2017-06-19 22:49:34: 100.00% completed.
2017-06-19 22:49:34: End of calculation.
2017-06-19 22:49:34: Total calculation time: 38678 ms.
2017-06-19 22:49:34: 100.00% completed.
2017-06-19 22:49:34: End of calculation.
2017-06-19 22:49:34: Total calculation time: 38744 ms.
2017-06-19 22:49:34: 100.00% completed.
2017-06-19 22:49:34: End of calculation.
2017-06-19 22:49:34: Total calculation time: 38748 ms.
2017-06-19 22:49:34: 100.00% completed.
2017-06-19 22:49:34: End of calculation.
2017-06-19 22:49:34: Total calculation time: 38879 ms.
2017-06-19 22:49:34: 100.00% completed.
2017-06-19 22:49:34: End of calculation.
2017-06-19 22:49:34: Total calculation time: 38931 ms.
2017-06-19 22:49:34: 100.00% completed.
2017-06-19 22:49:34: End of calculation.
2017-06-19 22:49:34: Total calculation time: 38992 ms.
2017-06-19 22:49:34: 100.00% completed.
2017-06-19 22:49:34: End of calculation.
2017-06-19 22:49:34: Total calculation time: 38995 ms.
2017-06-19 22:49:34: 100.00% completed.
2017-06-19 22:49:34: End of calculation.
2017-06-19 22:49:34: Total calculation time: 39080 ms.
2017-06-19 22:49:34: 100.00% completed.
2017-06-19 22:49:34: End of calculation.
2017-06-19 22:49:34: Total calculation time: 39082 ms.
2017-06-19 22:49:34: 100.00% completed.
2017-06-19 22:49:34: End of calculation.
2017-06-19 22:49:34: Total calculation time: 39125 ms.
2017-06-19 22:49:34: 100.00% completed.
2017-06-19 22:49:34: End of calculation.
2017-06-19 22:49:34: Total calculation time: 39226 ms.
2017-06-19 22:49:34: 100.00% completed.
2017-06-19 22:49:34: End of calculation.
2017-06-19 22:49:34: Total calculation time: 39230 ms.
2017-06-19 22:49:34: 100.00% completed.
2017-06-19 22:49:34: End of calculation.
2017-06-19 22:49:34: Total calculation time: 39326 ms.
2017-06-19 22:49:34: 100.00% completed.
2017-06-19 22:49:34: End of calculation.
2017-06-19 22:49:34: Total calculation time: 39396 ms.
2017-06-19 22:49:34: 100.00% completed.
2017-06-19 22:49:34: End of calculation.
2017-06-19 22:49:34: Total calculation time: 39446 ms.
2017-06-19 22:49:34: 100.00% completed.
2017-06-19 22:49:34: End of calculation.
2017-06-19 22:49:34: Total calculation time: 39449 ms.
2017-06-19 22:49:35: 100.00% completed.
2017-06-19 22:49:35: End of calculation.
2017-06-19 22:49:35: Total calculation time: 39546 ms.
2017-06-19 22:49:35: 100.00% completed.
2017-06-19 22:49:35: End of calculation.
2017-06-19 22:49:35: Total calculation time: 39550 ms.
2017-06-19 22:49:35: 100.00% completed.
2017-06-19 22:49:35: End of calculation.
2017-06-19 22:49:35: Total calculation time: 39558 ms.
2017-06-19 22:49:35: 100.00% completed.
2017-06-19 22:49:35: End of calculation.
2017-06-19 22:49:35: Total calculation time: 39646 ms.
2017-06-19 22:49:35: 100.00% completed.
2017-06-19 22:49:35: End of calculation.
2017-06-19 22:49:35: Total calculation time: 39718 ms.
2017-06-19 22:49:35: 100.00% completed.
2017-06-19 22:49:35: End of calculation.
2017-06-19 22:49:35: Total calculation time: 39771 ms.
2017-06-19 22:49:35: 100.00% completed.
2017-06-19 22:49:35: End of calculation.
2017-06-19 22:49:35: Total calculation time: 39780 ms.
2017-06-19 22:49:35: 100.00% completed.
2017-06-19 22:49:35: End of calculation.
2017-06-19 22:49:35: Total calculation time: 39783 ms.
done
computing RF ...
done
All done!
