computing MS ...
TreeCmp version 1.0-b291

Active options:
Type of the analysis:  one-to-all comparison mode (-r)
Metrics:
  1. MatchingSplit (ms)
Input file: ../gene_trees/randprune/is.poly.gt.randprune.0.030.trees
Output file: ../results/is.poly.randprune.0.030.MS.dat
Additional options:
P - Prune compared trees if needed (trees can have different leaf sets).
-----
2017-06-19 22:49:26: Start of scanning input file: ../gene_trees/randprune/is.poly.gt.randprune.0.030.trees
2017-06-19 22:49:43: End of scanning input file: ../gene_trees/randprune/is.poly.gt.randprune.0.030.trees
2017-06-19 22:49:43: 1478 valid trees found in file: ../gene_trees/randprune/is.poly.gt.randprune.0.030.trees
2017-06-19 22:49:43: Start of calculation...please wait...
2017-06-19 22:49:43: 0.00% completed...
2017-06-19 22:49:49: 5.01% completed...
2017-06-19 22:49:53: 10.01% completed...
2017-06-19 22:49:56: 15.02% completed...
2017-06-19 22:50:00: 20.03% completed...
2017-06-19 22:50:03: 25.03% completed...
2017-06-19 22:50:07: 30.04% completed...
2017-06-19 22:50:10: 35.05% completed...
2017-06-19 22:50:13: 40.05% completed...
2017-06-19 22:50:16: 45.06% completed...
2017-06-19 22:50:19: 50.07% completed...
2017-06-19 22:50:21: 55.07% completed...
2017-06-19 22:50:23: 60.08% completed...
2017-06-19 22:50:26: 65.09% completed...
2017-06-19 22:50:28: 70.09% completed...
2017-06-19 22:50:31: 75.10% completed...
2017-06-19 22:50:33: 80.11% completed...
2017-06-19 22:50:35: 85.12% completed...
2017-06-19 22:50:38: 90.12% completed...
2017-06-19 22:50:40: 95.13% completed...
2017-06-19 22:50:42: 100.00% completed.
2017-06-19 22:50:42: End of calculation.
2017-06-19 22:50:42: Total calculation time: 59567 ms.
done
computing RF ...
done
All done!
.
done
All done!
