computing MSdone
computing MS ...
TreeCmp version 1.0-b291

Active options:
Type of the analysis:  one-to-all comparison mode (-r)
Metrics:
  1. MatchingSplit (ms)
Input file: ../gene_trees/randprune/is.poly.gt.randprune.0.055.trees
Output file: ../results/is.poly.randprune.0.055.MS.dat
Additional options:
P - Prune compared trees if needed (trees can have different leaf sets).
-----
2017-06-19 22:51:46: Start of scanning input file: ../gene_trees/randprune/is.poly.gt.randprune.0.055.trees
2017-06-19 22:51:58: End of scanning input file: ../gene_trees/randprune/is.poly.gt.randprune.0.055.trees
2017-06-19 22:51:58: 1478 valid trees found in file: ../gene_trees/randprune/is.poly.gt.randprune.0.055.trees
2017-06-19 22:51:58: Start of calculation...please wait...
2017-06-19 22:51:58: 0.00% completed...
2017-06-19 22:52:02: 5.01% completed...
2017-06-19 22:52:05: 10.01% completed...
2017-06-19 22:52:07: 15.02% completed...
2017-06-19 22:52:09: 20.03% completed...
2017-06-19 22:52:11: 25.03% completed...
2017-06-19 22:52:13: 30.04% completed...
2017-06-19 22:52:15: 35.05% completed...
2017-06-19 22:52:18: 40.05% completed...
2017-06-19 22:52:20: 45.06% completed...
2017-06-19 22:52:22: 50.07% completed...
2017-06-19 22:52:24: 55.07% completed...
2017-06-19 22:52:26: 60.08% completed...
2017-06-19 22:52:28: 65.09% completed...
2017-06-19 22:52:30: 70.09% completed...
2017-06-19 22:52:32: 75.10% completed...
2017-06-19 22:52:35: 80.11% completed...
2017-06-19 22:52:37: 85.12% completed...
2017-06-19 22:52:39: 90.12% completed...
2017-06-19 22:52:41: 95.13% completed...
2017-06-19 22:52:43: 100.00% completed.
2017-06-19 22:52:43: End of calculation.
2017-06-19 22:52:43: Total calculation time: 45648 ms.
done
computing RF ...
done
All done!
50:28: End of calculation.
2017-06-19 22:50:28: Total calculation time: 53101 ms.
2017-06-19 22:50:28: 100.00% completed.
2017-06-19 22:50:28: End of calculation.
2017-06-19 22:50:28: Total calculation time: 53145 ms.
2017-06-19 22:50:28: 100.00% completed.
2017-06-19 22:50:28: End of calculation.
2017-06-19 22:50:28: Total calculation time: 53149 ms.
2017-06-19 22:50:28: 100.00% completed.
2017-06-19 22:50:28: End of calculation.
2017-06-19 22:50:28: Total calculation time: 53232 ms.
2017-06-19 22:50:28: 100.00% completed.
2017-06-19 22:50:28: End of calculation.
2017-06-19 22:50:28: Total calculation time: 53260 ms.
2017-06-19 22:50:28: 100.00% completed.
2017-06-19 22:50:28: End of calculation.
2017-06-19 22:50:28: Total calculation time: 53271 ms.
2017-06-19 22:50:28: 100.00% completed.
2017-06-19 22:50:28: End of calculation.
2017-06-19 22:50:28: Total calculation time: 53349 ms.
2017-06-19 22:50:28: 100.00% completed.
2017-06-19 22:50:28: End of calculation.
2017-06-19 22:50:28: Total calculation time: 53402 ms.
2017-06-19 22:50:29: 100.00% completed.
2017-06-19 22:50:29: End of calculation.
2017-06-19 22:50:29: Total calculation time: 53483 ms.
2017-06-19 22:50:29: 100.00% completed.
2017-06-19 22:50:29: End of calculation.
2017-06-19 22:50:29: Total calculation time: 53487 ms.
2017-06-19 22:50:29: 100.00% completed.
2017-06-19 22:50:29: End of calculation.
2017-06-19 22:50:29: Total calculation time: 53491 ms.
2017-06-19 22:50:29: 100.00% completed.
2017-06-19 22:50:29: End of calculation.
2017-06-19 22:50:29: Total calculation time: 53560 ms.
2017-06-19 22:50:29: 100.00% completed.
2017-06-19 22:50:29: End of calculation.
2017-06-19 22:50:29: Total calculation time: 53570 ms.
2017-06-19 22:50:29: 100.00% completed.
2017-06-19 22:50:29: End of calculation.
2017-06-19 22:50:29: Total calculation time: 53662 ms.
2017-06-19 22:50:29: 100.00% completed.
2017-06-19 22:50:29: End of calculation.
2017-06-19 22:50:29: Total calculation time: 53665 ms.
2017-06-19 22:50:29: 100.00% completed.
2017-06-19 22:50:29: End of calculation.
2017-06-19 22:50:29: Total calculation time: 53729 ms.
2017-06-19 22:50:29: 100.00% completed.
2017-06-19 22:50:29: End of calculation.
2017-06-19 22:50:29: Total calculation time: 53767 ms.
2017-06-19 22:50:29: 100.00% completed.
2017-06-19 22:50:29: End of calculation.
2017-06-19 22:50:29: Total calculation time: 53770 ms.
2017-06-19 22:50:29: 100.00% completed.
2017-06-19 22:50:29: End of calculation.
2017-06-19 22:50:29: Total calculation time: 53774 ms.
2017-06-19 22:50:29: 100.00% completed.
2017-06-19 22:50:29: End of calculation.
2017-06-19 22:50:29: Total calculation time: 53801 ms.
2017-06-19 22:50:29: 100.00% completed.
2017-06-19 22:50:29: End of calculation.
2017-06-19 22:50:29: Total calculation time: 53864 ms.
2017-06-19 22:50:29: 100.00% completed.
2017-06-19 22:50:29: End of calculation.
2017-06-19 22:50:29: Total calculation time: 53931 ms.
2017-06-19 22:50:29: 100.00% completed.
2017-06-19 22:50:29: End of calculation.
2017-06-19 22:50:29: Total calculation time: 53934 ms.
2017-06-19 22:50:29: 100.00% completed.
2017-06-19 22:50:29: End of calculation.
2017-06-19 22:50:29: Total calculation time: 53989 ms.
2017-06-19 22:50:29: 100.00% completed.
2017-06-19 22:50:29: End of calculation.
2017-06-19 22:50:29: Total calculation time: 54037 ms.
2017-06-19 22:50:29: 100.00% completed.
2017-06-19 22:50:29: End of calculation.
2017-06-19 22:50:29: Total calculation time: 54076 ms.
2017-06-19 22:50:29: 100.00% completed.
2017-06-19 22:50:29: End of calculation.
2017-06-19 22:50:29: Total calculation time: 54123 ms.
2017-06-19 22:50:29: 100.00% completed.
2017-06-19 22:50:29: End of calculation.
2017-06-19 22:50:29: Total calculation time: 54134 ms.
2017-06-19 22:50:29: 100.00% completed.
2017-06-19 22:50:29: End of calculation.
2017-06-19 22:50:29: Total calculation time: 54189 ms.
2017-06-19 22:50:29: 100.00% completed.
2017-06-19 22:50:29: End of calculation.
2017-06-19 22:50:29: Total calculation time: 54232 ms.
2017-06-19 22:50:29: 100.00% completed.
2017-06-19 22:50:29: End of calculation.
2017-06-19 22:50:29: Total calculation time: 54291 ms.
2017-06-19 22:50:29: 100.00% completed.
2017-06-19 22:50:29: End of calculation.
2017-06-19 22:50:29: Total calculation time: 54294 ms.
2017-06-19 22:50:29: 100.00% completed.
2017-06-19 22:50:29: End of calculation.
2017-06-19 22:50:29: Total calculation time: 54360 ms.
2017-06-19 22:50:29: 100.00% completed.
2017-06-19 22:50:29: End of calculation.
2017-06-19 22:50:29: Total calculation time: 54386 ms.
2017-06-19 22:50:29: 100.00% completed.
2017-06-19 22:50:29: End of calculation.
2017-06-19 22:50:29: Total calculation time: 54396 ms.
2017-06-19 22:50:29: 100.00% completed.
2017-06-19 22:50:30: End of calculation.
2017-06-19 22:50:30: Total calculation time: 54459 ms.
2017-06-19 22:50:30: 100.00% completed.
2017-06-19 22:50:30: End of calculation.
2017-06-19 22:50:30: Total calculation time: 54499 ms.
2017-06-19 22:50:30: 100.00% completed.
2017-06-19 22:50:30: End of calculation.
2017-06-19 22:50:30: Total calculation time: 54505 ms.
2017-06-19 22:50:30: 100.00% completed.
2017-06-19 22:50:30: End of calculation.
2017-06-19 22:50:30: Total calculation time: 54556 ms.
2017-06-19 22:50:30: 100.00% completed.
2017-06-19 22:50:30: End of calculation.
2017-06-19 22:50:30: Total calculation time: 54599 ms.
2017-06-19 22:50:30: 100.00% completed.
2017-06-19 22:50:30: End of calculation.
2017-06-19 22:50:30: Total calculation time: 54602 ms.
2017-06-19 22:50:30: 100.00% completed.
2017-06-19 22:50:30: End of calculation.
2017-06-19 22:50:30: Total calculation time: 54629 ms.
2017-06-19 22:50:30: 100.00% completed.
2017-06-19 22:50:30: End of calculation.
2017-06-19 22:50:30: Total calculation time: 54672 ms.
2017-06-19 22:50:30: 100.00% completed.
2017-06-19 22:50:30: End of calculation.
2017-06-19 22:50:30: Total calculation time: 54676 ms.
2017-06-19 22:50:30: 100.00% completed.
2017-06-19 22:50:30: End of calculation.
2017-06-19 22:50:30: Total calculation time: 54747 ms.
2017-06-19 22:50:30: 100.00% completed.
2017-06-19 22:50:30: End of calculation.
2017-06-19 22:50:30: Total calculation time: 54779 ms.
2017-06-19 22:50:30: 100.00% completed.
2017-06-19 22:50:30: End of calculation.
2017-06-19 22:50:30: Total calculation time: 54782 ms.
2017-06-19 22:50:30: 100.00% completed.
2017-06-19 22:50:30: End of calculation.
2017-06-19 22:50:30: Total calculation time: 54826 ms.
2017-06-19 22:50:30: 100.00% completed.
2017-06-19 22:50:30: End of calculation.
2017-06-19 22:50:30: Total calculation time: 54858 ms.
2017-06-19 22:50:30: 100.00% completed.
2017-06-19 22:50:30: End of calculation.
2017-06-19 22:50:30: Total calculation time: 54915 ms.
2017-06-19 22:50:30: 100.00% completed.
2017-06-19 22:50:30: End of calculation.
2017-06-19 22:50:30: Total calculation time: 54918 ms.
2017-06-19 22:50:30: 100.00% completed.
2017-06-19 22:50:30: End of calculation.
2017-06-19 22:50:30: Total calculation time: 54980 ms.
2017-06-19 22:50:30: 100.00% completed.
2017-06-19 22:50:30: End of calculation.
2017-06-19 22:50:30: Total calculation time: 54999 ms.
2017-06-19 22:50:30: 100.00% completed.
2017-06-19 22:50:30: End of calculation.
2017-06-19 22:50:30: Total calculation time: 55003 ms.
2017-06-19 22:50:30: 100.00% completed.
2017-06-19 22:50:30: End of calculation.
2017-06-19 22:50:30: Total calculation time: 55053 ms.
2017-06-19 22:50:30: 100.00% completed.
2017-06-19 22:50:30: End of calculation.
2017-06-19 22:50:30: Total calculation time: 55107 ms.
2017-06-19 22:50:30: 100.00% completed.
2017-06-19 22:50:30: End of calculation.
2017-06-19 22:50:30: Total calculation time: 55133 ms.
2017-06-19 22:50:30: 100.00% completed.
2017-06-19 22:50:30: End of calculation.
2017-06-19 22:50:30: Total calculation time: 55146 ms.
2017-06-19 22:50:30: 100.00% completed.
2017-06-19 22:50:30: End of calculation.
2017-06-19 22:50:30: Total calculation time: 55149 ms.
2017-06-19 22:50:30: 100.00% completed.
2017-06-19 22:50:30: End of calculation.
2017-06-19 22:50:30: Total calculation time: 55196 ms.
2017-06-19 22:50:30: 100.00% completed.
2017-06-19 22:50:30: End of calculation.
2017-06-19 22:50:30: Total calculation time: 55232 ms.
2017-06-19 22:50:30: 100.00% completed.
2017-06-19 22:50:30: End of calculation.
2017-06-19 22:50:30: Total calculation time: 55234 ms.
2017-06-19 22:50:30: 100.00% completed.
2017-06-19 22:50:30: End of calculation.
2017-06-19 22:50:30: Total calculation time: 55244 ms.
2017-06-19 22:50:30: 100.00% completed.
2017-06-19 22:50:30: End of calculation.
2017-06-19 22:50:30: Total calculation time: 55280 ms.
2017-06-19 22:50:30: 100.00% completed.
2017-06-19 22:50:30: End of calculation.
2017-06-19 22:50:30: Total calculation time: 55291 ms.
2017-06-19 22:50:30: 100.00% completed.
2017-06-19 22:50:30: End of calculation.
2017-06-19 22:50:30: Total calculation time: 55294 ms.
2017-06-19 22:50:30: 100.00% completed.
2017-06-19 22:50:30: End of calculation.
2017-06-19 22:50:30: Total calculation time: 55297 ms.
2017-06-19 22:50:30: 100.00% completed.
2017-06-19 22:50:30: End of calculation.
2017-06-19 22:50:30: Total calculation time: 55301 ms.
2017-06-19 22:50:30: 100.00% completed.
2017-06-19 22:50:30: End of calculation.
2017-06-19 22:50:30: Total calculation time: 55349 ms.
2017-06-19 22:50:30: 100.00% completed.
2017-06-19 22:50:30: End of calculation.
2017-06-19 22:50:30: Total calculation time: 55352 ms.
2017-06-19 22:50:30: 100.00% completed.
2017-06-19 22:50:30: End of calculation.
2017-06-19 22:50:30: Total calculation time: 55402 ms.
2017-06-19 22:50:30: 100.00% completed.
2017-06-19 22:50:30: End of calculation.
2017-06-19 22:50:30: Total calculation time: 55440 ms.
2017-06-19 22:50:31: 100.00% completed.
2017-06-19 22:50:31: End of calculation.
2017-06-19 22:50:31: Total calculation time: 55491 ms.
2017-06-19 22:50:31: 100.00% completed.
2017-06-19 22:50:31: End of calculation.
2017-06-19 22:50:31: Total calculation time: 55494 ms.
2017-06-19 22:50:31: 100.00% completed.
2017-06-19 22:50:31: End of calculation.
2017-06-19 22:50:31: Total calculation time: 55546 ms.
2017-06-19 22:50:31: 100.00% completed.
2017-06-19 22:50:31: End of calculation.
2017-06-19 22:50:31: Total calculation time: 55590 ms.
2017-06-19 22:50:31: 100.00% completed.
2017-06-19 22:50:31: End of calculation.
2017-06-19 22:50:31: Total calculation time: 55594 ms.
2017-06-19 22:50:31: 100.00% completed.
2017-06-19 22:50:31: End of calculation.
2017-06-19 22:50:31: Total calculation time: 55672 ms.
2017-06-19 22:50:31: 100.00% completed.
2017-06-19 22:50:31: End of calculation.
2017-06-19 22:50:31: Total calculation time: 55744 ms.
2017-06-19 22:50:31: 100.00% completed.
2017-06-19 22:50:31: End of calculation.
2017-06-19 22:50:31: Total calculation time: 55783 ms.
2017-06-19 22:50:31: 100.00% completed.
2017-06-19 22:50:31: End of calculation.
2017-06-19 22:50:31: Total calculation time: 55791 ms.
2017-06-19 22:50:31: 100.00% completed.
2017-06-19 22:50:31: End of calculation.
2017-06-19 22:50:31: Total calculation time: 55865 ms.
2017-06-19 22:50:31: 100.00% completed.
2017-06-19 22:50:31: End of calculation.
2017-06-19 22:50:31: Total calculation time: 55933 ms.
2017-06-19 22:50:31: 100.00% completed.
2017-06-19 22:50:31: End of calculation.
2017-06-19 22:50:31: Total calculation time: 55970 ms.
2017-06-19 22:50:31: 100.00% completed.
2017-06-19 22:50:31: End of calculation.
2017-06-19 22:50:31: Total calculation time: 55974 ms.
2017-06-19 22:50:31: 100.00% completed.
2017-06-19 22:50:31: End of calculation.
2017-06-19 22:50:31: Total calculation time: 56033 ms.
2017-06-19 22:50:31: 100.00% completed.
2017-06-19 22:50:31: End of calculation.
2017-06-19 22:50:31: Total calculation time: 56107 ms.
2017-06-19 22:50:31: 100.00% completed.
2017-06-19 22:50:31: End of calculation.
2017-06-19 22:50:31: Total calculation time: 56110 ms.
2017-06-19 22:50:31: 100.00% completed.
2017-06-19 22:50:31: End of calculation.
2017-06-19 22:50:31: Total calculation time: 56149 ms.
2017-06-19 22:50:31: 100.00% completed.
2017-06-19 22:50:31: End of calculation.
2017-06-19 22:50:31: Total calculation time: 56188 ms.
2017-06-19 22:50:31: 100.00% completed.
2017-06-19 22:50:31: End of calculation.
2017-06-19 22:50:31: Total calculation time: 56237 ms.
2017-06-19 22:50:31: 100.00% completed.
2017-06-19 22:50:31: End of calculation.
2017-06-19 22:50:31: Total calculation time: 56240 ms.
2017-06-19 22:50:31: 100.00% completed.
2017-06-19 22:50:31: End of calculation.
2017-06-19 22:50:31: Total calculation time: 56305 ms.
2017-06-19 22:50:31: 100.00% completed.
2017-06-19 22:50:31: End of calculation.
2017-06-19 22:50:31: Total calculation time: 56340 ms.
2017-06-19 22:50:31: 100.00% completed.
2017-06-19 22:50:31: End of calculation.
2017-06-19 22:50:31: Total calculation time: 56376 ms.
2017-06-19 22:50:31: 100.00% completed.
2017-06-19 22:50:31: End of calculation.
2017-06-19 22:50:31: Total calculation time: 56423 ms.
2017-06-19 22:50:31: 100.00% completed.
2017-06-19 22:50:31: End of calculation.
2017-06-19 22:50:31: Total calculation time: 56426 ms.
2017-06-19 22:50:32: 100.00% completed.
2017-06-19 22:50:32: End of calculation.
2017-06-19 22:50:32: Total calculation time: 56481 ms.
2017-06-19 22:50:32: 100.00% completed.
2017-06-19 22:50:32: End of calculation.
2017-06-19 22:50:32: Total calculation time: 56486 ms.
2017-06-19 22:50:32: 100.00% completed.
2017-06-19 22:50:32: End of calculation.
2017-06-19 22:50:32: Total calculation time: 56571 ms.
2017-06-19 22:50:32: 100.00% completed.
2017-06-19 22:50:32: End of calculation.
2017-06-19 22:50:32: Total calculation time: 56574 ms.
2017-06-19 22:50:32: 100.00% completed.
2017-06-19 22:50:32: End of calculation.
2017-06-19 22:50:32: Total calculation time: 56691 ms.
2017-06-19 22:50:32: 100.00% completed.
2017-06-19 22:50:32: End of calculation.
2017-06-19 22:50:32: Total calculation time: 56700 ms.
2017-06-19 22:50:32: 100.00% completed.
2017-06-19 22:50:32: End of calculation.
2017-06-19 22:50:32: Total calculation time: 56762 ms.
2017-06-19 22:50:32: 100.00% completed.
2017-06-19 22:50:32: End of calculation.
2017-06-19 22:50:32: Total calculation time: 56765 ms.
2017-06-19 22:50:32: 100.00% completed.
2017-06-19 22:50:32: End of calculation.
2017-06-19 22:50:32: Total calculation time: 56834 ms.
2017-06-19 22:50:32: 100.00% completed.
2017-06-19 22:50:32: End of calculation.
2017-06-19 22:50:32: Total calculation time: 56837 ms.
2017-06-19 22:50:32: 100.00% completed.
2017-06-19 22:50:32: End of calculation.
2017-06-19 22:50:32: Total calculation time: 56915 ms.
2017-06-19 22:50:32: 100.00% completed.
2017-06-19 22:50:32: End of calculation.
2017-06-19 22:50:32: Total calculation time: 56918 ms.
2017-06-19 22:50:32: 100.00% completed.
2017-06-19 22:50:32: End of calculation.
2017-06-19 22:50:32: Total calculation time: 56958 ms.
2017-06-19 22:50:32: 100.00% completed.
2017-06-19 22:50:32: End of calculation.
2017-06-19 22:50:32: Total calculation time: 57009 ms.
2017-06-19 22:50:32: 100.00% completed.
2017-06-19 22:50:32: End of calculation.
2017-06-19 22:50:32: Total calculation time: 57049 ms.
2017-06-19 22:50:32: 100.00% completed.
2017-06-19 22:50:32: End of calculation.
2017-06-19 22:50:32: Total calculation time: 57107 ms.
2017-06-19 22:50:32: 100.00% completed.
2017-06-19 22:50:32: End of calculation.
2017-06-19 22:50:32: Total calculation time: 57110 ms.
2017-06-19 22:50:32: 100.00% completed.
2017-06-19 22:50:32: End of calculation.
2017-06-19 22:50:32: Total calculation time: 57194 ms.
2017-06-19 22:50:32: 100.00% completed.
2017-06-19 22:50:32: End of calculation.
2017-06-19 22:50:32: Total calculation time: 57198 ms.
2017-06-19 22:50:32: 100.00% completed.
2017-06-19 22:50:32: End of calculation.
2017-06-19 22:50:32: Total calculation time: 57237 ms.
2017-06-19 22:50:32: 100.00% completed.
2017-06-19 22:50:32: End of calculation.
2017-06-19 22:50:32: Total calculation time: 57287 ms.
2017-06-19 22:50:32: 100.00% completed.
2017-06-19 22:50:32: End of calculation.
2017-06-19 22:50:32: Total calculation time: 57293 ms.
done
computing RF ...
done
All done!
