computing MS ...
TreeCmp version 1.0-b291

Active options:
Type of the analysis:  one-to-all comparison mode (-r)
Metrics:
  1. MatchingSplit (ms)
Input file: ../gene_trees/LBF/is.poly.gt.LBF.0.145.trees
Output file: ../results/is.poly.0.145.MS.dat
Additional options:
P - Prune compared trees if needed (trees can have different leaf sets).
-----
2017-06-19 22:16:22: Start of scanning input file: ../gene_trees/LBF/is.poly.gt.LBF.0.145.trees
2017-06-19 22:16:39: End of scanning input file: ../gene_trees/LBF/is.poly.gt.LBF.0.145.trees
2017-06-19 22:16:39: 1478 valid trees found in file: ../gene_trees/LBF/is.poly.gt.LBF.0.145.trees
2017-06-19 22:16:39: Start of calculation...please wait...
2017-06-19 22:16:39: 0.00% completed...
2017-06-19 22:16:47: 5.01% completed...
2017-06-19 22:16:51: 10.01% completed...
2017-06-19 22:16:55: 15.02% completed...
2017-06-19 22:16:59: 20.03% completed...
2017-06-19 22:17:02: 25.03% completed...
2017-06-19 22:17:05: 30.04% completed...
2017-06-19 22:17:08: 35.05% completed...
2017-06-19 22:17:11: 40.05% completed...
2017-06-19 22:17:14: 45.06% completed...
2017-06-19 22:17:17: 50.07% completed...
2017-06-19 22:17:20: 55.07% completed...
2017-06-19 22:17:23: 60.08% completed...
2017-06-19 22:17:26: 65.09% completed...
2017-06-19 22:17:28: 70.09% completed...
2017-06-19 22:17:31: 75.10% completed...
2017-06-19 22:17:34: 80.11% completed...
2017-06-19 22:17:37: 85.12% completed...
2017-06-19 22:17:41: 90.12% completed...
2017-06-19 22:17:43: 95.13% completed...
2017-06-19 22:17:46: 100.00% completed.
2017-06-19 22:17:46: End of calculation.
2017-06-19 22:17:46: Total calculation time: 67078 ms.
done
computing RF ...
done
All done!
