computing MSdone
computing MS ...
TreeCmp version 1.0-b291

Active options:
Type of the analysis:  one-to-all comparison mode (-r)
Metrics:
  1. MatchingSplit (ms)
Input file: ../gene_trees/randprune/is.poly.gt.randprune.0.150.trees
Output file: ../results/is.poly.randprune.0.150.MS.dat
Additional options:
P - Prune compared trees if needed (trees can have different leaf sets).
-----
2017-06-19 22:56:38: Start of scanning input file: ../gene_trees/randprune/is.poly.gt.randprune.0.150.trees
2017-06-19 22:56:48: End of scanning input file: ../gene_trees/randprune/is.poly.gt.randprune.0.150.trees
2017-06-19 22:56:48: 1478 valid trees found in file: ../gene_trees/randprune/is.poly.gt.randprune.0.150.trees
2017-06-19 22:56:48: Start of calculation...please wait...
2017-06-19 22:56:48: 0.00% completed...
2017-06-19 22:56:52: 5.01% completed...
2017-06-19 22:56:54: 10.01% completed...
2017-06-19 22:56:56: 15.02% completed...
2017-06-19 22:56:58: 20.03% completed...
2017-06-19 22:57:00: 25.03% completed...
2017-06-19 22:57:02: 30.04% completed...
2017-06-19 22:57:04: 35.05% completed...
2017-06-19 22:57:06: 40.05% completed...
2017-06-19 22:57:08: 45.06% completed...
2017-06-19 22:57:10: 50.07% completed...
2017-06-19 22:57:11: 55.07% completed...
2017-06-19 22:57:13: 60.08% completed...
2017-06-19 22:57:14: 65.09% completed...
2017-06-19 22:57:15: 70.09% completed...
2017-06-19 22:57:17: 75.10% completed...
2017-06-19 22:57:19: 80.11% completed...
2017-06-19 22:57:21: 85.12% completed...
2017-06-19 22:57:23: 90.12% completed...
2017-06-19 22:57:24: 95.13% completed...
2017-06-19 22:57:26: 100.00% completed.
2017-06-19 22:57:26: End of calculation.
2017-06-19 22:57:26: Total calculation time: 37266 ms.
done
computing RF ...
done
All done!
9:17: End of calculation.
2017-06-19 22:49:17: Total calculation time: 33417 ms.
2017-06-19 22:49:17: 100.00% completed.
2017-06-19 22:49:17: End of calculation.
2017-06-19 22:49:17: Total calculation time: 33479 ms.
2017-06-19 22:49:17: 100.00% completed.
2017-06-19 22:49:17: End of calculation.
2017-06-19 22:49:17: Total calculation time: 33566 ms.
2017-06-19 22:49:17: 100.00% completed.
2017-06-19 22:49:17: End of calculation.
2017-06-19 22:49:17: Total calculation time: 33569 ms.
2017-06-19 22:49:17: 100.00% completed.
2017-06-19 22:49:17: End of calculation.
2017-06-19 22:49:17: Total calculation time: 33611 ms.
2017-06-19 22:49:17: 100.00% completed.
2017-06-19 22:49:17: End of calculation.
2017-06-19 22:49:17: Total calculation time: 33739 ms.
2017-06-19 22:49:17: 100.00% completed.
2017-06-19 22:49:17: End of calculation.
2017-06-19 22:49:17: Total calculation time: 33753 ms.
2017-06-19 22:49:17: 100.00% completed.
2017-06-19 22:49:17: End of calculation.
2017-06-19 22:49:17: Total calculation time: 33757 ms.
2017-06-19 22:49:17: 100.00% completed.
2017-06-19 22:49:17: End of calculation.
2017-06-19 22:49:17: Total calculation time: 33899 ms.
2017-06-19 22:49:17: 100.00% completed.
2017-06-19 22:49:17: End of calculation.
2017-06-19 22:49:17: Total calculation time: 33962 ms.
2017-06-19 22:49:17: 100.00% completed.
2017-06-19 22:49:17: End of calculation.
2017-06-19 22:49:17: Total calculation time: 34026 ms.
2017-06-19 22:49:17: 100.00% completed.
2017-06-19 22:49:17: End of calculation.
2017-06-19 22:49:17: Total calculation time: 34029 ms.
2017-06-19 22:49:17: 100.00% completed.
2017-06-19 22:49:17: End of calculation.
2017-06-19 22:49:17: Total calculation time: 34034 ms.
2017-06-19 22:49:17: 100.00% completed.
2017-06-19 22:49:17: End of calculation.
2017-06-19 22:49:17: Total calculation time: 34145 ms.
2017-06-19 22:49:18: 100.00% completed.
2017-06-19 22:49:18: End of calculation.
2017-06-19 22:49:18: Total calculation time: 34225 ms.
2017-06-19 22:49:18: 100.00% completed.
2017-06-19 22:49:18: End of calculation.
2017-06-19 22:49:18: Total calculation time: 34298 ms.
2017-06-19 22:49:18: 100.00% completed.
2017-06-19 22:49:18: End of calculation.
2017-06-19 22:49:18: Total calculation time: 34310 ms.
2017-06-19 22:49:18: 100.00% completed.
2017-06-19 22:49:18: End of calculation.
2017-06-19 22:49:18: Total calculation time: 34394 ms.
2017-06-19 22:49:18: 100.00% completed.
2017-06-19 22:49:18: End of calculation.
2017-06-19 22:49:18: Total calculation time: 34397 ms.
2017-06-19 22:49:18: 100.00% completed.
2017-06-19 22:49:18: End of calculation.
2017-06-19 22:49:18: Total calculation time: 34498 ms.
2017-06-19 22:49:18: 100.00% completed.
2017-06-19 22:49:18: End of calculation.
2017-06-19 22:49:18: Total calculation time: 34502 ms.
2017-06-19 22:49:18: 100.00% completed.
2017-06-19 22:49:18: End of calculation.
2017-06-19 22:49:18: Total calculation time: 34515 ms.
2017-06-19 22:49:18: 100.00% completed.
2017-06-19 22:49:18: End of calculation.
2017-06-19 22:49:18: Total calculation time: 34670 ms.
2017-06-19 22:49:18: 100.00% completed.
2017-06-19 22:49:18: End of calculation.
2017-06-19 22:49:18: Total calculation time: 34672 ms.
2017-06-19 22:49:18: 100.00% completed.
2017-06-19 22:49:18: End of calculation.
2017-06-19 22:49:18: Total calculation time: 34803 ms.
2017-06-19 22:49:18: 100.00% completed.
2017-06-19 22:49:18: End of calculation.
2017-06-19 22:49:18: Total calculation time: 34806 ms.
2017-06-19 22:49:18: 100.00% completed.
2017-06-19 22:49:18: End of calculation.
2017-06-19 22:49:18: Total calculation time: 34929 ms.
2017-06-19 22:49:18: 100.00% completed.
2017-06-19 22:49:18: End of calculation.
2017-06-19 22:49:18: Total calculation time: 34940 ms.
2017-06-19 22:49:18: 100.00% completed.
2017-06-19 22:49:18: End of calculation.
2017-06-19 22:49:18: Total calculation time: 35014 ms.
2017-06-19 22:49:18: 100.00% completed.
2017-06-19 22:49:18: End of calculation.
2017-06-19 22:49:18: Total calculation time: 35017 ms.
2017-06-19 22:49:18: 100.00% completed.
2017-06-19 22:49:18: End of calculation.
2017-06-19 22:49:18: Total calculation time: 35095 ms.
2017-06-19 22:49:18: 100.00% completed.
2017-06-19 22:49:18: End of calculation.
2017-06-19 22:49:18: Total calculation time: 35098 ms.
2017-06-19 22:49:18: 100.00% completed.
2017-06-19 22:49:18: End of calculation.
2017-06-19 22:49:18: Total calculation time: 35166 ms.
2017-06-19 22:49:19: 100.00% completed.
2017-06-19 22:49:19: End of calculation.
2017-06-19 22:49:19: Total calculation time: 35242 ms.
2017-06-19 22:49:19: 100.00% completed.
2017-06-19 22:49:19: End of calculation.
2017-06-19 22:49:19: Total calculation time: 35279 ms.
2017-06-19 22:49:19: 100.00% completed.
2017-06-19 22:49:19: End of calculation.
2017-06-19 22:49:19: Total calculation time: 35333 ms.
done
computing RF ...
done
All done!
