computing MSdone
computing MS ...
TreeCmp version 1.0-b291

Active options:
Type of the analysis:  one-to-all comparison mode (-r)
Metrics:
  1. MatchingSplit (ms)
Input file: ../gene_trees/randprune/is.poly.gt.randprune.0.045.trees
Output file: ../results/is.poly.randprune.0.045.MS.dat
Additional options:
P - Prune compared trees if needed (trees can have different leaf sets).
-----
2017-06-19 22:50:58: Start of scanning input file: ../gene_trees/randprune/is.poly.gt.randprune.0.045.trees
2017-06-19 22:51:11: End of scanning input file: ../gene_trees/randprune/is.poly.gt.randprune.0.045.trees
2017-06-19 22:51:11: 1478 valid trees found in file: ../gene_trees/randprune/is.poly.gt.randprune.0.045.trees
2017-06-19 22:51:11: Start of calculation...please wait...
2017-06-19 22:51:11: 0.00% completed...
2017-06-19 22:51:16: 5.01% completed...
2017-06-19 22:51:18: 10.01% completed...
2017-06-19 22:51:20: 15.02% completed...
2017-06-19 22:51:23: 20.03% completed...
2017-06-19 22:51:25: 25.03% completed...
2017-06-19 22:51:27: 30.04% completed...
2017-06-19 22:51:30: 35.05% completed...
2017-06-19 22:51:32: 40.05% completed...
2017-06-19 22:51:34: 45.06% completed...
2017-06-19 22:51:36: 50.07% completed...
2017-06-19 22:51:38: 55.07% completed...
2017-06-19 22:51:41: 60.08% completed...
2017-06-19 22:51:43: 65.09% completed...
2017-06-19 22:51:46: 70.09% completed...
2017-06-19 22:51:48: 75.10% completed...
2017-06-19 22:51:51: 80.11% completed...
2017-06-19 22:51:53: 85.12% completed...
2017-06-19 22:51:55: 90.12% completed...
2017-06-19 22:51:58: 95.13% completed...
2017-06-19 22:52:00: 100.00% completed.
2017-06-19 22:52:00: End of calculation.
2017-06-19 22:52:00: Total calculation time: 49001 ms.
done
computing RF ...
done
All done!
50:25: End of calculation.
2017-06-19 22:50:25: Total calculation time: 57411 ms.
2017-06-19 22:50:25: 100.00% completed.
2017-06-19 22:50:25: End of calculation.
2017-06-19 22:50:25: Total calculation time: 57415 ms.
2017-06-19 22:50:25: 100.00% completed.
2017-06-19 22:50:25: End of calculation.
2017-06-19 22:50:25: Total calculation time: 57460 ms.
2017-06-19 22:50:25: 100.00% completed.
2017-06-19 22:50:25: End of calculation.
2017-06-19 22:50:25: Total calculation time: 57492 ms.
2017-06-19 22:50:25: 100.00% completed.
2017-06-19 22:50:25: End of calculation.
2017-06-19 22:50:25: Total calculation time: 57554 ms.
2017-06-19 22:50:25: 100.00% completed.
2017-06-19 22:50:25: End of calculation.
2017-06-19 22:50:25: Total calculation time: 57590 ms.
2017-06-19 22:50:25: 100.00% completed.
2017-06-19 22:50:25: End of calculation.
2017-06-19 22:50:25: Total calculation time: 57605 ms.
2017-06-19 22:50:26: 100.00% completed.
2017-06-19 22:50:26: End of calculation.
2017-06-19 22:50:26: Total calculation time: 57709 ms.
2017-06-19 22:50:26: 100.00% completed.
2017-06-19 22:50:26: End of calculation.
2017-06-19 22:50:26: Total calculation time: 57719 ms.
2017-06-19 22:50:26: 100.00% completed.
2017-06-19 22:50:26: End of calculation.
2017-06-19 22:50:26: Total calculation time: 57783 ms.
2017-06-19 22:50:26: 100.00% completed.
2017-06-19 22:50:26: End of calculation.
2017-06-19 22:50:26: Total calculation time: 57786 ms.
2017-06-19 22:50:26: 100.00% completed.
2017-06-19 22:50:26: End of calculation.
2017-06-19 22:50:26: Total calculation time: 57845 ms.
2017-06-19 22:50:26: 100.00% completed.
2017-06-19 22:50:26: End of calculation.
2017-06-19 22:50:26: Total calculation time: 57893 ms.
2017-06-19 22:50:26: 100.00% completed.
2017-06-19 22:50:26: End of calculation.
2017-06-19 22:50:26: Total calculation time: 57907 ms.
2017-06-19 22:50:26: 100.00% completed.
2017-06-19 22:50:26: End of calculation.
2017-06-19 22:50:26: Total calculation time: 58019 ms.
2017-06-19 22:50:26: 100.00% completed.
2017-06-19 22:50:26: End of calculation.
2017-06-19 22:50:26: Total calculation time: 58023 ms.
2017-06-19 22:50:26: 100.00% completed.
2017-06-19 22:50:26: End of calculation.
2017-06-19 22:50:26: Total calculation time: 58099 ms.
2017-06-19 22:50:26: 100.00% completed.
2017-06-19 22:50:26: End of calculation.
2017-06-19 22:50:26: Total calculation time: 58103 ms.
2017-06-19 22:50:26: 100.00% completed.
2017-06-19 22:50:26: End of calculation.
2017-06-19 22:50:26: Total calculation time: 58171 ms.
2017-06-19 22:50:26: 100.00% completed.
2017-06-19 22:50:26: End of calculation.
2017-06-19 22:50:26: Total calculation time: 58176 ms.
2017-06-19 22:50:26: 100.00% completed.
2017-06-19 22:50:26: End of calculation.
2017-06-19 22:50:26: Total calculation time: 58243 ms.
2017-06-19 22:50:26: 100.00% completed.
2017-06-19 22:50:26: End of calculation.
2017-06-19 22:50:26: Total calculation time: 58317 ms.
2017-06-19 22:50:26: 100.00% completed.
2017-06-19 22:50:26: End of calculation.
2017-06-19 22:50:26: Total calculation time: 58345 ms.
2017-06-19 22:50:26: 100.00% completed.
2017-06-19 22:50:26: End of calculation.
2017-06-19 22:50:26: Total calculation time: 58348 ms.
2017-06-19 22:50:26: 100.00% completed.
2017-06-19 22:50:26: End of calculation.
2017-06-19 22:50:26: Total calculation time: 58418 ms.
2017-06-19 22:50:26: 100.00% completed.
2017-06-19 22:50:26: End of calculation.
2017-06-19 22:50:26: Total calculation time: 58443 ms.
2017-06-19 22:50:26: 100.00% completed.
2017-06-19 22:50:26: End of calculation.
2017-06-19 22:50:26: Total calculation time: 58447 ms.
2017-06-19 22:50:26: 100.00% completed.
2017-06-19 22:50:26: End of calculation.
2017-06-19 22:50:26: Total calculation time: 58512 ms.
2017-06-19 22:50:26: 100.00% completed.
2017-06-19 22:50:26: End of calculation.
2017-06-19 22:50:26: Total calculation time: 58545 ms.
2017-06-19 22:50:26: 100.00% completed.
2017-06-19 22:50:27: End of calculation.
2017-06-19 22:50:27: Total calculation time: 58548 ms.
2017-06-19 22:50:27: 100.00% completed.
2017-06-19 22:50:27: End of calculation.
2017-06-19 22:50:27: Total calculation time: 58654 ms.
2017-06-19 22:50:27: 100.00% completed.
2017-06-19 22:50:27: End of calculation.
2017-06-19 22:50:27: Total calculation time: 58658 ms.
2017-06-19 22:50:27: 100.00% completed.
2017-06-19 22:50:27: End of calculation.
2017-06-19 22:50:27: Total calculation time: 58728 ms.
2017-06-19 22:50:27: 100.00% completed.
2017-06-19 22:50:27: End of calculation.
2017-06-19 22:50:27: Total calculation time: 58787 ms.
2017-06-19 22:50:27: 100.00% completed.
2017-06-19 22:50:27: End of calculation.
2017-06-19 22:50:27: Total calculation time: 58798 ms.
2017-06-19 22:50:27: 100.00% completed.
2017-06-19 22:50:27: End of calculation.
2017-06-19 22:50:27: Total calculation time: 58878 ms.
2017-06-19 22:50:27: 100.00% completed.
2017-06-19 22:50:27: End of calculation.
2017-06-19 22:50:27: Total calculation time: 58922 ms.
2017-06-19 22:50:27: 100.00% completed.
2017-06-19 22:50:27: End of calculation.
2017-06-19 22:50:27: Total calculation time: 58929 ms.
2017-06-19 22:50:27: 100.00% completed.
2017-06-19 22:50:27: End of calculation.
2017-06-19 22:50:27: Total calculation time: 59013 ms.
2017-06-19 22:50:27: 100.00% completed.
2017-06-19 22:50:27: End of calculation.
2017-06-19 22:50:27: Total calculation time: 59018 ms.
2017-06-19 22:50:27: 100.00% completed.
2017-06-19 22:50:27: End of calculation.
2017-06-19 22:50:27: Total calculation time: 59084 ms.
2017-06-19 22:50:27: 100.00% completed.
2017-06-19 22:50:27: End of calculation.
2017-06-19 22:50:27: Total calculation time: 59137 ms.
2017-06-19 22:50:27: 100.00% completed.
2017-06-19 22:50:27: End of calculation.
2017-06-19 22:50:27: Total calculation time: 59146 ms.
2017-06-19 22:50:27: 100.00% completed.
2017-06-19 22:50:27: End of calculation.
2017-06-19 22:50:27: Total calculation time: 59199 ms.
2017-06-19 22:50:27: 100.00% completed.
2017-06-19 22:50:27: End of calculation.
2017-06-19 22:50:27: Total calculation time: 59202 ms.
2017-06-19 22:50:27: 100.00% completed.
2017-06-19 22:50:27: End of calculation.
2017-06-19 22:50:27: Total calculation time: 59274 ms.
2017-06-19 22:50:27: 100.00% completed.
2017-06-19 22:50:27: End of calculation.
2017-06-19 22:50:27: Total calculation time: 59317 ms.
2017-06-19 22:50:27: 100.00% completed.
2017-06-19 22:50:27: End of calculation.
2017-06-19 22:50:27: Total calculation time: 59320 ms.
2017-06-19 22:50:27: 100.00% completed.
2017-06-19 22:50:27: End of calculation.
2017-06-19 22:50:27: Total calculation time: 59360 ms.
2017-06-19 22:50:27: 100.00% completed.
2017-06-19 22:50:27: End of calculation.
2017-06-19 22:50:27: Total calculation time: 59408 ms.
2017-06-19 22:50:27: 100.00% completed.
2017-06-19 22:50:27: End of calculation.
2017-06-19 22:50:27: Total calculation time: 59459 ms.
2017-06-19 22:50:27: 100.00% completed.
2017-06-19 22:50:27: End of calculation.
2017-06-19 22:50:27: Total calculation time: 59507 ms.
2017-06-19 22:50:27: 100.00% completed.
2017-06-19 22:50:27: End of calculation.
2017-06-19 22:50:27: Total calculation time: 59547 ms.
2017-06-19 22:50:27: 100.00% completed.
2017-06-19 22:50:27: End of calculation.
2017-06-19 22:50:27: Total calculation time: 59561 ms.
2017-06-19 22:50:28: 100.00% completed.
2017-06-19 22:50:28: End of calculation.
2017-06-19 22:50:28: Total calculation time: 59616 ms.
2017-06-19 22:50:28: 100.00% completed.
2017-06-19 22:50:28: End of calculation.
2017-06-19 22:50:28: Total calculation time: 59632 ms.
2017-06-19 22:50:28: 100.00% completed.
2017-06-19 22:50:28: End of calculation.
2017-06-19 22:50:28: Total calculation time: 59707 ms.
2017-06-19 22:50:28: 100.00% completed.
2017-06-19 22:50:28: End of calculation.
2017-06-19 22:50:28: Total calculation time: 59712 ms.
2017-06-19 22:50:28: 100.00% completed.
2017-06-19 22:50:28: End of calculation.
2017-06-19 22:50:28: Total calculation time: 59781 ms.
2017-06-19 22:50:28: 100.00% completed.
2017-06-19 22:50:28: End of calculation.
2017-06-19 22:50:28: Total calculation time: 59784 ms.
2017-06-19 22:50:28: 100.00% completed.
2017-06-19 22:50:28: End of calculation.
2017-06-19 22:50:28: Total calculation time: 59827 ms.
2017-06-19 22:50:28: 100.00% completed.
2017-06-19 22:50:28: End of calculation.
2017-06-19 22:50:28: Total calculation time: 59871 ms.
2017-06-19 22:50:28: 100.00% completed.
2017-06-19 22:50:28: End of calculation.
2017-06-19 22:50:28: Total calculation time: 59874 ms.
2017-06-19 22:50:28: 100.00% completed.
2017-06-19 22:50:28: End of calculation.
2017-06-19 22:50:28: Total calculation time: 59921 ms.
2017-06-19 22:50:28: 100.00% completed.
2017-06-19 22:50:28: End of calculation.
2017-06-19 22:50:28: Total calculation time: 59924 ms.
2017-06-19 22:50:28: 100.00% completed.
2017-06-19 22:50:28: End of calculation.
2017-06-19 22:50:28: Total calculation time: 59952 ms.
2017-06-19 22:50:28: 100.00% completed.
2017-06-19 22:50:28: End of calculation.
2017-06-19 22:50:28: Total calculation time: 59955 ms.
2017-06-19 22:50:28: 100.00% completed.
2017-06-19 22:50:28: End of calculation.
2017-06-19 22:50:28: Total calculation time: 60030 ms.
2017-06-19 22:50:28: 100.00% completed.
2017-06-19 22:50:28: End of calculation.
2017-06-19 22:50:28: Total calculation time: 60037 ms.
2017-06-19 22:50:28: 100.00% completed.
2017-06-19 22:50:28: End of calculation.
2017-06-19 22:50:28: Total calculation time: 60104 ms.
2017-06-19 22:50:28: 100.00% completed.
2017-06-19 22:50:28: End of calculation.
2017-06-19 22:50:28: Total calculation time: 60108 ms.
2017-06-19 22:50:28: 100.00% completed.
2017-06-19 22:50:28: End of calculation.
2017-06-19 22:50:28: Total calculation time: 60130 ms.
2017-06-19 22:50:28: 100.00% completed.
2017-06-19 22:50:28: End of calculation.
2017-06-19 22:50:28: Total calculation time: 60198 ms.
2017-06-19 22:50:28: 100.00% completed.
2017-06-19 22:50:28: End of calculation.
2017-06-19 22:50:28: Total calculation time: 60201 ms.
2017-06-19 22:50:28: 100.00% completed.
2017-06-19 22:50:28: End of calculation.
2017-06-19 22:50:28: Total calculation time: 60238 ms.
2017-06-19 22:50:28: 100.00% completed.
2017-06-19 22:50:28: End of calculation.
2017-06-19 22:50:28: Total calculation time: 60273 ms.
2017-06-19 22:50:28: 100.00% completed.
2017-06-19 22:50:28: End of calculation.
2017-06-19 22:50:28: Total calculation time: 60277 ms.
2017-06-19 22:50:28: 100.00% completed.
2017-06-19 22:50:28: End of calculation.
2017-06-19 22:50:28: Total calculation time: 60317 ms.
2017-06-19 22:50:28: 100.00% completed.
2017-06-19 22:50:28: End of calculation.
2017-06-19 22:50:28: Total calculation time: 60320 ms.
2017-06-19 22:50:28: 100.00% completed.
2017-06-19 22:50:28: End of calculation.
2017-06-19 22:50:28: Total calculation time: 60372 ms.
2017-06-19 22:50:28: 100.00% completed.
2017-06-19 22:50:28: End of calculation.
2017-06-19 22:50:28: Total calculation time: 60381 ms.
2017-06-19 22:50:28: 100.00% completed.
2017-06-19 22:50:28: End of calculation.
2017-06-19 22:50:28: Total calculation time: 60384 ms.
2017-06-19 22:50:28: 100.00% completed.
2017-06-19 22:50:28: End of calculation.
2017-06-19 22:50:28: Total calculation time: 60463 ms.
2017-06-19 22:50:28: 100.00% completed.
2017-06-19 22:50:28: End of calculation.
2017-06-19 22:50:28: Total calculation time: 60491 ms.
2017-06-19 22:50:28: 100.00% completed.
2017-06-19 22:50:28: End of calculation.
2017-06-19 22:50:28: Total calculation time: 60539 ms.
2017-06-19 22:50:28: 100.00% completed.
2017-06-19 22:50:28: End of calculation.
2017-06-19 22:50:28: Total calculation time: 60542 ms.
2017-06-19 22:50:28: 100.00% completed.
2017-06-19 22:50:28: End of calculation.
2017-06-19 22:50:28: Total calculation time: 60607 ms.
2017-06-19 22:50:29: 100.00% completed.
2017-06-19 22:50:29: End of calculation.
2017-06-19 22:50:29: Total calculation time: 60629 ms.
2017-06-19 22:50:29: 100.00% completed.
2017-06-19 22:50:29: End of calculation.
2017-06-19 22:50:29: Total calculation time: 60638 ms.
2017-06-19 22:50:29: 100.00% completed.
2017-06-19 22:50:29: End of calculation.
2017-06-19 22:50:29: Total calculation time: 60699 ms.
2017-06-19 22:50:29: 100.00% completed.
2017-06-19 22:50:29: End of calculation.
2017-06-19 22:50:29: Total calculation time: 60747 ms.
2017-06-19 22:50:29: 100.00% completed.
2017-06-19 22:50:29: End of calculation.
2017-06-19 22:50:29: Total calculation time: 60750 ms.
2017-06-19 22:50:29: 100.00% completed.
2017-06-19 22:50:29: End of calculation.
2017-06-19 22:50:29: Total calculation time: 60825 ms.
2017-06-19 22:50:29: 100.00% completed.
2017-06-19 22:50:29: End of calculation.
2017-06-19 22:50:29: Total calculation time: 60827 ms.
2017-06-19 22:50:29: 100.00% completed.
2017-06-19 22:50:29: End of calculation.
2017-06-19 22:50:29: Total calculation time: 60881 ms.
2017-06-19 22:50:29: 100.00% completed.
2017-06-19 22:50:29: End of calculation.
2017-06-19 22:50:29: Total calculation time: 60884 ms.
2017-06-19 22:50:29: 100.00% completed.
2017-06-19 22:50:29: End of calculation.
2017-06-19 22:50:29: Total calculation time: 60935 ms.
2017-06-19 22:50:29: 100.00% completed.
2017-06-19 22:50:29: End of calculation.
2017-06-19 22:50:29: Total calculation time: 60967 ms.
2017-06-19 22:50:29: 100.00% completed.
2017-06-19 22:50:29: End of calculation.
2017-06-19 22:50:29: Total calculation time: 60976 ms.
2017-06-19 22:50:29: 100.00% completed.
2017-06-19 22:50:29: End of calculation.
2017-06-19 22:50:29: Total calculation time: 60980 ms.
2017-06-19 22:50:29: 100.00% completed.
2017-06-19 22:50:29: End of calculation.
2017-06-19 22:50:29: Total calculation time: 61079 ms.
2017-06-19 22:50:29: 100.00% completed.
2017-06-19 22:50:29: End of calculation.
2017-06-19 22:50:29: Total calculation time: 61122 ms.
2017-06-19 22:50:29: 100.00% completed.
2017-06-19 22:50:29: End of calculation.
2017-06-19 22:50:29: Total calculation time: 61200 ms.
2017-06-19 22:50:29: 100.00% completed.
2017-06-19 22:50:29: End of calculation.
2017-06-19 22:50:29: Total calculation time: 61203 ms.
2017-06-19 22:50:29: 100.00% completed.
2017-06-19 22:50:29: End of calculation.
2017-06-19 22:50:29: Total calculation time: 61207 ms.
2017-06-19 22:50:29: 100.00% completed.
2017-06-19 22:50:29: End of calculation.
2017-06-19 22:50:29: Total calculation time: 61302 ms.
2017-06-19 22:50:29: 100.00% completed.
2017-06-19 22:50:29: End of calculation.
2017-06-19 22:50:29: Total calculation time: 61305 ms.
2017-06-19 22:50:29: 100.00% completed.
2017-06-19 22:50:29: End of calculation.
2017-06-19 22:50:29: Total calculation time: 61373 ms.
2017-06-19 22:50:29: 100.00% completed.
2017-06-19 22:50:29: End of calculation.
2017-06-19 22:50:29: Total calculation time: 61376 ms.
2017-06-19 22:50:29: 100.00% completed.
2017-06-19 22:50:29: End of calculation.
2017-06-19 22:50:29: Total calculation time: 61423 ms.
2017-06-19 22:50:29: 100.00% completed.
2017-06-19 22:50:29: End of calculation.
2017-06-19 22:50:29: Total calculation time: 61426 ms.
2017-06-19 22:50:29: 100.00% completed.
2017-06-19 22:50:29: End of calculation.
2017-06-19 22:50:29: Total calculation time: 61428 ms.
2017-06-19 22:50:29: 100.00% completed.
2017-06-19 22:50:29: End of calculation.
2017-06-19 22:50:29: Total calculation time: 61498 ms.
2017-06-19 22:50:29: 100.00% completed.
2017-06-19 22:50:29: End of calculation.
2017-06-19 22:50:29: Total calculation time: 61559 ms.
2017-06-19 22:50:29: 100.00% completed.
2017-06-19 22:50:29: End of calculation.
2017-06-19 22:50:29: Total calculation time: 61562 ms.
2017-06-19 22:50:29: 100.00% completed.
2017-06-19 22:50:29: End of calculation.
2017-06-19 22:50:29: Total calculation time: 61609 ms.
2017-06-19 22:50:29: 100.00% completed.
2017-06-19 22:50:29: End of calculation.
2017-06-19 22:50:29: Total calculation time: 61612 ms.
2017-06-19 22:50:30: 100.00% completed.
2017-06-19 22:50:30: End of calculation.
2017-06-19 22:50:30: Total calculation time: 61661 ms.
2017-06-19 22:50:30: 100.00% completed.
2017-06-19 22:50:30: End of calculation.
2017-06-19 22:50:30: Total calculation time: 61667 ms.
2017-06-19 22:50:30: 100.00% completed.
2017-06-19 22:50:30: End of calculation.
2017-06-19 22:50:30: Total calculation time: 61728 ms.
2017-06-19 22:50:30: 100.00% completed.
2017-06-19 22:50:30: End of calculation.
2017-06-19 22:50:30: Total calculation time: 61775 ms.
2017-06-19 22:50:30: 100.00% completed.
2017-06-19 22:50:30: End of calculation.
2017-06-19 22:50:30: Total calculation time: 61838 ms.
2017-06-19 22:50:30: 100.00% completed.
2017-06-19 22:50:30: End of calculation.
2017-06-19 22:50:30: Total calculation time: 61878 ms.
2017-06-19 22:50:30: 100.00% completed.
2017-06-19 22:50:30: End of calculation.
2017-06-19 22:50:30: Total calculation time: 61881 ms.
2017-06-19 22:50:30: 100.00% completed.
2017-06-19 22:50:30: End of calculation.
2017-06-19 22:50:30: Total calculation time: 61884 ms.
2017-06-19 22:50:30: 100.00% completed.
2017-06-19 22:50:30: End of calculation.
2017-06-19 22:50:30: Total calculation time: 61975 ms.
2017-06-19 22:50:30: 100.00% completed.
2017-06-19 22:50:30: End of calculation.
2017-06-19 22:50:30: Total calculation time: 62022 ms.
2017-06-19 22:50:30: 100.00% completed.
2017-06-19 22:50:30: End of calculation.
2017-06-19 22:50:30: Total calculation time: 62053 ms.
2017-06-19 22:50:30: 100.00% completed.
2017-06-19 22:50:30: End of calculation.
2017-06-19 22:50:30: Total calculation time: 62056 ms.
2017-06-19 22:50:30: 100.00% completed.
2017-06-19 22:50:30: End of calculation.
2017-06-19 22:50:30: Total calculation time: 62110 ms.
2017-06-19 22:50:30: 100.00% completed.
2017-06-19 22:50:30: End of calculation.
2017-06-19 22:50:30: Total calculation time: 62116 ms.
2017-06-19 22:50:30: 100.00% completed.
2017-06-19 22:50:30: End of calculation.
2017-06-19 22:50:30: Total calculation time: 62201 ms.
2017-06-19 22:50:30: 100.00% completed.
2017-06-19 22:50:30: End of calculation.
2017-06-19 22:50:30: Total calculation time: 62204 ms.
2017-06-19 22:50:30: 100.00% completed.
2017-06-19 22:50:30: End of calculation.
2017-06-19 22:50:30: Total calculation time: 62249 ms.
2017-06-19 22:50:30: 100.00% completed.
2017-06-19 22:50:30: End of calculation.
2017-06-19 22:50:30: Total calculation time: 62280 ms.
2017-06-19 22:50:30: 100.00% completed.
2017-06-19 22:50:30: End of calculation.
2017-06-19 22:50:30: Total calculation time: 62321 ms.
2017-06-19 22:50:30: 100.00% completed.
2017-06-19 22:50:30: End of calculation.
2017-06-19 22:50:30: Total calculation time: 62376 ms.
2017-06-19 22:50:30: 100.00% completed.
2017-06-19 22:50:30: End of calculation.
2017-06-19 22:50:30: Total calculation time: 62380 ms.
2017-06-19 22:50:30: 100.00% completed.
2017-06-19 22:50:30: End of calculation.
2017-06-19 22:50:30: Total calculation time: 62407 ms.
2017-06-19 22:50:30: 100.00% completed.
2017-06-19 22:50:30: End of calculation.
2017-06-19 22:50:30: Total calculation time: 62410 ms.
2017-06-19 22:50:30: 100.00% completed.
2017-06-19 22:50:30: End of calculation.
2017-06-19 22:50:30: Total calculation time: 62488 ms.
2017-06-19 22:50:30: 100.00% completed.
2017-06-19 22:50:30: End of calculation.
2017-06-19 22:50:30: Total calculation time: 62523 ms.
2017-06-19 22:50:30: 100.00% completed.
2017-06-19 22:50:30: End of calculation.
2017-06-19 22:50:30: Total calculation time: 62580 ms.
2017-06-19 22:50:30: 100.00% completed.
2017-06-19 22:50:30: End of calculation.
2017-06-19 22:50:30: Total calculation time: 62582 ms.
2017-06-19 22:50:31: 100.00% completed.
2017-06-19 22:50:31: End of calculation.
2017-06-19 22:50:31: Total calculation time: 62646 ms.
2017-06-19 22:50:31: 100.00% completed.
2017-06-19 22:50:31: End of calculation.
2017-06-19 22:50:31: Total calculation time: 62649 ms.
2017-06-19 22:50:31: 100.00% completed.
2017-06-19 22:50:31: End of calculation.
2017-06-19 22:50:31: Total calculation time: 62652 ms.
2017-06-19 22:50:31: 100.00% completed.
2017-06-19 22:50:31: End of calculation.
2017-06-19 22:50:31: Total calculation time: 62744 ms.
2017-06-19 22:50:31: 100.00% completed.
2017-06-19 22:50:31: End of calculation.
2017-06-19 22:50:31: Total calculation time: 62747 ms.
2017-06-19 22:50:31: 100.00% completed.
2017-06-19 22:50:31: End of calculation.
2017-06-19 22:50:31: Total calculation time: 62847 ms.
2017-06-19 22:50:31: 100.00% completed.
2017-06-19 22:50:31: End of calculation.
2017-06-19 22:50:31: Total calculation time: 62850 ms.
2017-06-19 22:50:31: 100.00% completed.
2017-06-19 22:50:31: End of calculation.
2017-06-19 22:50:31: Total calculation time: 62852 ms.
done
computing RF ...
done
All done!
