computing MSdone
computing MS ...
TreeCmp version 1.0-b291

Active options:
Type of the analysis:  one-to-all comparison mode (-r)
Metrics:
  1. MatchingSplit (ms)
Input file: ../gene_trees/randprune/is.poly.gt.randprune.0.125.trees
Output file: ../results/is.poly.randprune.0.125.MS.dat
Additional options:
P - Prune compared trees if needed (trees can have different leaf sets).
-----
2017-06-19 22:55:59: Start of scanning input file: ../gene_trees/randprune/is.poly.gt.randprune.0.125.trees
2017-06-19 22:56:10: End of scanning input file: ../gene_trees/randprune/is.poly.gt.randprune.0.125.trees
2017-06-19 22:56:10: 1478 valid trees found in file: ../gene_trees/randprune/is.poly.gt.randprune.0.125.trees
2017-06-19 22:56:10: Start of calculation...please wait...
2017-06-19 22:56:10: 0.00% completed...
2017-06-19 22:56:14: 5.01% completed...
2017-06-19 22:56:16: 10.01% completed...
2017-06-19 22:56:18: 15.02% completed...
2017-06-19 22:56:20: 20.03% completed...
2017-06-19 22:56:22: 25.03% completed...
2017-06-19 22:56:24: 30.04% completed...
2017-06-19 22:56:26: 35.05% completed...
2017-06-19 22:56:28: 40.05% completed...
2017-06-19 22:56:30: 45.06% completed...
2017-06-19 22:56:32: 50.07% completed...
2017-06-19 22:56:33: 55.07% completed...
2017-06-19 22:56:35: 60.08% completed...
2017-06-19 22:56:37: 65.09% completed...
2017-06-19 22:56:39: 70.09% completed...
2017-06-19 22:56:41: 75.10% completed...
2017-06-19 22:56:43: 80.11% completed...
2017-06-19 22:56:45: 85.12% completed...
2017-06-19 22:56:47: 90.12% completed...
2017-06-19 22:56:49: 95.13% completed...
2017-06-19 22:56:51: 100.00% completed.
2017-06-19 22:56:51: End of calculation.
2017-06-19 22:56:51: Total calculation time: 40817 ms.
done
computing RF ...
done
All done!
9:29: End of calculation.
2017-06-19 22:49:29: Total calculation time: 34131 ms.
2017-06-19 22:49:29: 100.00% completed.
2017-06-19 22:49:29: End of calculation.
2017-06-19 22:49:29: Total calculation time: 34211 ms.
2017-06-19 22:49:29: 100.00% completed.
2017-06-19 22:49:29: End of calculation.
2017-06-19 22:49:29: Total calculation time: 34286 ms.
2017-06-19 22:49:29: 100.00% completed.
2017-06-19 22:49:29: End of calculation.
2017-06-19 22:49:29: Total calculation time: 34289 ms.
2017-06-19 22:49:29: 100.00% completed.
2017-06-19 22:49:29: End of calculation.
2017-06-19 22:49:29: Total calculation time: 34291 ms.
2017-06-19 22:49:29: 100.00% completed.
2017-06-19 22:49:29: End of calculation.
2017-06-19 22:49:29: Total calculation time: 34388 ms.
2017-06-19 22:49:29: 100.00% completed.
2017-06-19 22:49:29: End of calculation.
2017-06-19 22:49:29: Total calculation time: 34402 ms.
2017-06-19 22:49:30: 100.00% completed.
2017-06-19 22:49:30: End of calculation.
2017-06-19 22:49:30: Total calculation time: 34523 ms.
2017-06-19 22:49:30: 100.00% completed.
2017-06-19 22:49:30: End of calculation.
2017-06-19 22:49:30: Total calculation time: 34532 ms.
2017-06-19 22:49:30: 100.00% completed.
2017-06-19 22:49:30: End of calculation.
2017-06-19 22:49:30: Total calculation time: 34590 ms.
2017-06-19 22:49:30: 100.00% completed.
2017-06-19 22:49:30: End of calculation.
2017-06-19 22:49:30: Total calculation time: 34628 ms.
2017-06-19 22:49:30: 100.00% completed.
2017-06-19 22:49:30: End of calculation.
2017-06-19 22:49:30: Total calculation time: 34632 ms.
2017-06-19 22:49:30: 100.00% completed.
2017-06-19 22:49:30: End of calculation.
2017-06-19 22:49:30: Total calculation time: 34748 ms.
2017-06-19 22:49:30: 100.00% completed.
2017-06-19 22:49:30: End of calculation.
2017-06-19 22:49:30: Total calculation time: 34771 ms.
2017-06-19 22:49:30: 100.00% completed.
2017-06-19 22:49:30: End of calculation.
2017-06-19 22:49:30: Total calculation time: 34875 ms.
2017-06-19 22:49:30: 100.00% completed.
2017-06-19 22:49:30: End of calculation.
2017-06-19 22:49:30: Total calculation time: 34878 ms.
2017-06-19 22:49:30: 100.00% completed.
2017-06-19 22:49:30: End of calculation.
2017-06-19 22:49:30: Total calculation time: 34973 ms.
2017-06-19 22:49:30: 100.00% completed.
2017-06-19 22:49:30: End of calculation.
2017-06-19 22:49:30: Total calculation time: 35080 ms.
2017-06-19 22:49:30: 100.00% completed.
2017-06-19 22:49:30: End of calculation.
2017-06-19 22:49:30: Total calculation time: 35083 ms.
2017-06-19 22:49:30: 100.00% completed.
2017-06-19 22:49:30: End of calculation.
2017-06-19 22:49:30: Total calculation time: 35088 ms.
2017-06-19 22:49:30: 100.00% completed.
2017-06-19 22:49:30: End of calculation.
2017-06-19 22:49:30: Total calculation time: 35183 ms.
2017-06-19 22:49:30: 100.00% completed.
2017-06-19 22:49:30: End of calculation.
2017-06-19 22:49:30: Total calculation time: 35234 ms.
2017-06-19 22:49:30: 100.00% completed.
2017-06-19 22:49:30: End of calculation.
2017-06-19 22:49:30: Total calculation time: 35298 ms.
2017-06-19 22:49:30: 100.00% completed.
2017-06-19 22:49:30: End of calculation.
2017-06-19 22:49:30: Total calculation time: 35369 ms.
2017-06-19 22:49:30: 100.00% completed.
2017-06-19 22:49:30: End of calculation.
2017-06-19 22:49:30: Total calculation time: 35378 ms.
2017-06-19 22:49:31: 100.00% completed.
2017-06-19 22:49:31: End of calculation.
2017-06-19 22:49:31: Total calculation time: 35502 ms.
2017-06-19 22:49:31: 100.00% completed.
2017-06-19 22:49:31: End of calculation.
2017-06-19 22:49:31: Total calculation time: 35506 ms.
2017-06-19 22:49:31: 100.00% completed.
2017-06-19 22:49:31: End of calculation.
2017-06-19 22:49:31: Total calculation time: 35514 ms.
2017-06-19 22:49:31: 100.00% completed.
2017-06-19 22:49:31: End of calculation.
2017-06-19 22:49:31: Total calculation time: 35518 ms.
2017-06-19 22:49:31: 100.00% completed.
2017-06-19 22:49:31: End of calculation.
2017-06-19 22:49:31: Total calculation time: 35653 ms.
2017-06-19 22:49:31: 100.00% completed.
2017-06-19 22:49:31: End of calculation.
2017-06-19 22:49:31: Total calculation time: 35707 ms.
2017-06-19 22:49:31: 100.00% completed.
2017-06-19 22:49:31: End of calculation.
2017-06-19 22:49:31: Total calculation time: 35710 ms.
2017-06-19 22:49:31: 100.00% completed.
2017-06-19 22:49:31: End of calculation.
2017-06-19 22:49:31: Total calculation time: 35716 ms.
2017-06-19 22:49:31: 100.00% completed.
2017-06-19 22:49:31: End of calculation.
2017-06-19 22:49:31: Total calculation time: 35828 ms.
2017-06-19 22:49:31: 100.00% completed.
2017-06-19 22:49:31: End of calculation.
2017-06-19 22:49:31: Total calculation time: 35893 ms.
2017-06-19 22:49:31: 100.00% completed.
2017-06-19 22:49:31: End of calculation.
2017-06-19 22:49:31: Total calculation time: 35964 ms.
2017-06-19 22:49:31: 100.00% completed.
2017-06-19 22:49:31: End of calculation.
2017-06-19 22:49:31: Total calculation time: 35967 ms.
2017-06-19 22:49:31: 100.00% completed.
2017-06-19 22:49:31: End of calculation.
2017-06-19 22:49:31: Total calculation time: 36014 ms.
2017-06-19 22:49:31: 100.00% completed.
2017-06-19 22:49:31: End of calculation.
2017-06-19 22:49:31: Total calculation time: 36018 ms.
2017-06-19 22:49:31: 100.00% completed.
2017-06-19 22:49:31: End of calculation.
2017-06-19 22:49:31: Total calculation time: 36103 ms.
2017-06-19 22:49:31: 100.00% completed.
2017-06-19 22:49:31: End of calculation.
2017-06-19 22:49:31: Total calculation time: 36152 ms.
2017-06-19 22:49:31: 100.00% completed.
2017-06-19 22:49:31: End of calculation.
2017-06-19 22:49:31: Total calculation time: 36155 ms.
2017-06-19 22:49:31: 100.00% completed.
2017-06-19 22:49:31: End of calculation.
2017-06-19 22:49:31: Total calculation time: 36242 ms.
2017-06-19 22:49:31: 100.00% completed.
2017-06-19 22:49:31: End of calculation.
2017-06-19 22:49:31: Total calculation time: 36245 ms.
2017-06-19 22:49:31: 100.00% completed.
2017-06-19 22:49:31: End of calculation.
2017-06-19 22:49:31: Total calculation time: 36349 ms.
done
computing RF ...
done
All done!
