computing MSdone
computing MS ...
TreeCmp version 1.0-b291

Active options:
Type of the analysis:  one-to-all comparison mode (-r)
Metrics:
  1. MatchingSplit (ms)
Input file: ../gene_trees/randprune/is.poly.gt.randprune.0.130.trees
Output file: ../results/is.poly.randprune.0.130.MS.dat
Additional options:
P - Prune compared trees if needed (trees can have different leaf sets).
-----
2017-06-19 22:56:08: Start of scanning input file: ../gene_trees/randprune/is.poly.gt.randprune.0.130.trees
2017-06-19 22:56:19: End of scanning input file: ../gene_trees/randprune/is.poly.gt.randprune.0.130.trees
2017-06-19 22:56:19: 1478 valid trees found in file: ../gene_trees/randprune/is.poly.gt.randprune.0.130.trees
2017-06-19 22:56:19: Start of calculation...please wait...
2017-06-19 22:56:19: 0.00% completed...
2017-06-19 22:56:23: 5.01% completed...
2017-06-19 22:56:25: 10.01% completed...
2017-06-19 22:56:26: 15.02% completed...
2017-06-19 22:56:28: 20.03% completed...
2017-06-19 22:56:30: 25.03% completed...
2017-06-19 22:56:32: 30.04% completed...
2017-06-19 22:56:34: 35.05% completed...
2017-06-19 22:56:36: 40.05% completed...
2017-06-19 22:56:38: 45.06% completed...
2017-06-19 22:56:40: 50.07% completed...
2017-06-19 22:56:42: 55.07% completed...
2017-06-19 22:56:44: 60.08% completed...
2017-06-19 22:56:45: 65.09% completed...
2017-06-19 22:56:47: 70.09% completed...
2017-06-19 22:56:49: 75.10% completed...
2017-06-19 22:56:51: 80.11% completed...
2017-06-19 22:56:52: 85.12% completed...
2017-06-19 22:56:54: 90.12% completed...
2017-06-19 22:56:56: 95.13% completed...
2017-06-19 22:56:58: 100.00% completed.
2017-06-19 22:56:58: End of calculation.
2017-06-19 22:56:58: Total calculation time: 38870 ms.
done
computing RF ...
done
All done!
9:19: End of calculation.
2017-06-19 22:49:20: Total calculation time: 34996 ms.
2017-06-19 22:49:20: 100.00% completed.
2017-06-19 22:49:20: End of calculation.
2017-06-19 22:49:20: Total calculation time: 35097 ms.
2017-06-19 22:49:20: 100.00% completed.
2017-06-19 22:49:20: End of calculation.
2017-06-19 22:49:20: Total calculation time: 35101 ms.
2017-06-19 22:49:20: 100.00% completed.
2017-06-19 22:49:20: End of calculation.
2017-06-19 22:49:20: Total calculation time: 35204 ms.
2017-06-19 22:49:20: 100.00% completed.
2017-06-19 22:49:20: End of calculation.
2017-06-19 22:49:20: Total calculation time: 35324 ms.
2017-06-19 22:49:20: 100.00% completed.
2017-06-19 22:49:20: End of calculation.
2017-06-19 22:49:20: Total calculation time: 35329 ms.
2017-06-19 22:49:20: 100.00% completed.
2017-06-19 22:49:20: End of calculation.
2017-06-19 22:49:20: Total calculation time: 35342 ms.
2017-06-19 22:49:20: 100.00% completed.
2017-06-19 22:49:20: End of calculation.
2017-06-19 22:49:20: Total calculation time: 35345 ms.
2017-06-19 22:49:20: 100.00% completed.
2017-06-19 22:49:20: End of calculation.
2017-06-19 22:49:20: Total calculation time: 35483 ms.
2017-06-19 22:49:20: 100.00% completed.
2017-06-19 22:49:20: End of calculation.
2017-06-19 22:49:20: Total calculation time: 35550 ms.
2017-06-19 22:49:20: 100.00% completed.
2017-06-19 22:49:20: End of calculation.
2017-06-19 22:49:20: Total calculation time: 35554 ms.
2017-06-19 22:49:20: 100.00% completed.
2017-06-19 22:49:20: End of calculation.
2017-06-19 22:49:20: Total calculation time: 35625 ms.
2017-06-19 22:49:20: 100.00% completed.
2017-06-19 22:49:20: End of calculation.
2017-06-19 22:49:20: Total calculation time: 35639 ms.
2017-06-19 22:49:20: 100.00% completed.
2017-06-19 22:49:20: End of calculation.
2017-06-19 22:49:20: Total calculation time: 35703 ms.
2017-06-19 22:49:20: 100.00% completed.
2017-06-19 22:49:20: End of calculation.
2017-06-19 22:49:20: Total calculation time: 35790 ms.
2017-06-19 22:49:20: 100.00% completed.
2017-06-19 22:49:20: End of calculation.
2017-06-19 22:49:20: Total calculation time: 35793 ms.
2017-06-19 22:49:20: 100.00% completed.
2017-06-19 22:49:20: End of calculation.
2017-06-19 22:49:20: Total calculation time: 35831 ms.
2017-06-19 22:49:20: 100.00% completed.
2017-06-19 22:49:20: End of calculation.
2017-06-19 22:49:20: Total calculation time: 35836 ms.
2017-06-19 22:49:20: 100.00% completed.
2017-06-19 22:49:20: End of calculation.
2017-06-19 22:49:20: Total calculation time: 35955 ms.
2017-06-19 22:49:20: 100.00% completed.
2017-06-19 22:49:20: End of calculation.
2017-06-19 22:49:20: Total calculation time: 35960 ms.
2017-06-19 22:49:20: 100.00% completed.
2017-06-19 22:49:20: End of calculation.
2017-06-19 22:49:20: Total calculation time: 35973 ms.
2017-06-19 22:49:21: 100.00% completed.
2017-06-19 22:49:21: End of calculation.
2017-06-19 22:49:21: Total calculation time: 36074 ms.
2017-06-19 22:49:21: 100.00% completed.
2017-06-19 22:49:21: End of calculation.
2017-06-19 22:49:21: Total calculation time: 36077 ms.
2017-06-19 22:49:21: 100.00% completed.
2017-06-19 22:49:21: End of calculation.
2017-06-19 22:49:21: Total calculation time: 36115 ms.
2017-06-19 22:49:21: 100.00% completed.
2017-06-19 22:49:21: End of calculation.
2017-06-19 22:49:21: Total calculation time: 36176 ms.
2017-06-19 22:49:21: 100.00% completed.
2017-06-19 22:49:21: End of calculation.
2017-06-19 22:49:21: Total calculation time: 36178 ms.
2017-06-19 22:49:21: 100.00% completed.
2017-06-19 22:49:21: End of calculation.
2017-06-19 22:49:21: Total calculation time: 36180 ms.
2017-06-19 22:49:21: 100.00% completed.
2017-06-19 22:49:21: End of calculation.
2017-06-19 22:49:21: Total calculation time: 36194 ms.
2017-06-19 22:49:21: 100.00% completed.
2017-06-19 22:49:21: End of calculation.
2017-06-19 22:49:21: Total calculation time: 36303 ms.
2017-06-19 22:49:21: 100.00% completed.
2017-06-19 22:49:21: End of calculation.
2017-06-19 22:49:21: Total calculation time: 36378 ms.
2017-06-19 22:49:21: 100.00% completed.
2017-06-19 22:49:21: End of calculation.
2017-06-19 22:49:21: Total calculation time: 36381 ms.
2017-06-19 22:49:21: 100.00% completed.
2017-06-19 22:49:21: End of calculation.
2017-06-19 22:49:21: Total calculation time: 36384 ms.
2017-06-19 22:49:21: 100.00% completed.
2017-06-19 22:49:21: End of calculation.
2017-06-19 22:49:21: Total calculation time: 36518 ms.
2017-06-19 22:49:21: 100.00% completed.
2017-06-19 22:49:21: End of calculation.
2017-06-19 22:49:21: Total calculation time: 36521 ms.
2017-06-19 22:49:21: 100.00% completed.
2017-06-19 22:49:21: End of calculation.
2017-06-19 22:49:21: Total calculation time: 36585 ms.
2017-06-19 22:49:21: 100.00% completed.
2017-06-19 22:49:21: End of calculation.
2017-06-19 22:49:21: Total calculation time: 36658 ms.
2017-06-19 22:49:21: 100.00% completed.
2017-06-19 22:49:21: End of calculation.
2017-06-19 22:49:21: Total calculation time: 36667 ms.
2017-06-19 22:49:21: 100.00% completed.
2017-06-19 22:49:21: End of calculation.
2017-06-19 22:49:21: Total calculation time: 36670 ms.
2017-06-19 22:49:21: 100.00% completed.
2017-06-19 22:49:21: End of calculation.
2017-06-19 22:49:21: Total calculation time: 36802 ms.
2017-06-19 22:49:21: 100.00% completed.
2017-06-19 22:49:21: End of calculation.
2017-06-19 22:49:21: Total calculation time: 36841 ms.
2017-06-19 22:49:21: 100.00% completed.
2017-06-19 22:49:21: End of calculation.
2017-06-19 22:49:21: Total calculation time: 36922 ms.
2017-06-19 22:49:21: 100.00% completed.
2017-06-19 22:49:21: End of calculation.
2017-06-19 22:49:21: Total calculation time: 36925 ms.
2017-06-19 22:49:21: 100.00% completed.
2017-06-19 22:49:21: End of calculation.
2017-06-19 22:49:21: Total calculation time: 36996 ms.
2017-06-19 22:49:21: 100.00% completed.
2017-06-19 22:49:21: End of calculation.
2017-06-19 22:49:21: Total calculation time: 37051 ms.
done
computing RF ...
done
All done!
