computing MS ...
TreeCmp version 1.0-b291

Active options:
Type of the analysis:  one-to-all comparison mode (-r)
Metrics:
  1. MatchingSplit (ms)
Input file: ../gene_trees/LBF/is.poly.gt.LBF.0.010.trees
Output file: ../results/is.poly.0.010.MS.dat
Additional options:
P - Prune compared trees if needed (trees can have different leaf sets).
-----
2017-06-19 22:16:22: Start of scanning input file: ../gene_trees/LBF/is.poly.gt.LBF.0.010.trees
2017-06-19 22:16:42: End of scanning input file: ../gene_trees/LBF/is.poly.gt.LBF.0.010.trees
2017-06-19 22:16:42: 1478 valid trees found in file: ../gene_trees/LBF/is.poly.gt.LBF.0.010.trees
2017-06-19 22:16:42: Start of calculation...please wait...
2017-06-19 22:16:42: 0.00% completed...
2017-06-19 22:16:52: 5.01% completed...
2017-06-19 22:16:56: 10.01% completed...
2017-06-19 22:17:00: 15.02% completed...
2017-06-19 22:17:05: 20.03% completed...
2017-06-19 22:17:09: 25.03% completed...
2017-06-19 22:17:12: 30.04% completed...
2017-06-19 22:17:16: 35.05% completed...
2017-06-19 22:17:19: 40.05% completed...
2017-06-19 22:17:23: 45.06% completed...
2017-06-19 22:17:26: 50.07% completed...
2017-06-19 22:17:30: 55.07% completed...
2017-06-19 22:17:33: 60.08% completed...
2017-06-19 22:17:37: 65.09% completed...
2017-06-19 22:17:40: 70.09% completed...
2017-06-19 22:17:44: 75.10% completed...
2017-06-19 22:17:47: 80.11% completed...
2017-06-19 22:17:51: 85.12% completed...
2017-06-19 22:17:54: 90.12% completed...
2017-06-19 22:17:57: 95.13% completed...
2017-06-19 22:18:01: 100.00% completed.
2017-06-19 22:18:01: End of calculation.
2017-06-19 22:18:01: Total calculation time: 79097 ms.
done
computing RF ...
done
All done!
