computing MSdone
computing MS ...
TreeCmp version 1.0-b291

Active options:
Type of the analysis:  one-to-all comparison mode (-r)
Metrics:
  1. MatchingSplit (ms)
Input file: ../gene_trees/randprune/is.poly.gt.randprune.0.115.trees
Output file: ../results/is.poly.randprune.0.115.MS.dat
Additional options:
P - Prune compared trees if needed (trees can have different leaf sets).
-----
2017-06-19 22:55:38: Start of scanning input file: ../gene_trees/randprune/is.poly.gt.randprune.0.115.trees
2017-06-19 22:55:48: End of scanning input file: ../gene_trees/randprune/is.poly.gt.randprune.0.115.trees
2017-06-19 22:55:48: 1478 valid trees found in file: ../gene_trees/randprune/is.poly.gt.randprune.0.115.trees
2017-06-19 22:55:48: Start of calculation...please wait...
2017-06-19 22:55:48: 0.00% completed...
2017-06-19 22:55:52: 5.01% completed...
2017-06-19 22:55:54: 10.01% completed...
2017-06-19 22:55:56: 15.02% completed...
2017-06-19 22:55:58: 20.03% completed...
2017-06-19 22:56:01: 25.03% completed...
2017-06-19 22:56:03: 30.04% completed...
2017-06-19 22:56:05: 35.05% completed...
2017-06-19 22:56:07: 40.05% completed...
2017-06-19 22:56:08: 45.06% completed...
2017-06-19 22:56:10: 50.07% completed...
2017-06-19 22:56:12: 55.07% completed...
2017-06-19 22:56:14: 60.08% completed...
2017-06-19 22:56:16: 65.09% completed...
2017-06-19 22:56:18: 70.09% completed...
2017-06-19 22:56:20: 75.10% completed...
2017-06-19 22:56:22: 80.11% completed...
2017-06-19 22:56:24: 85.12% completed...
2017-06-19 22:56:25: 90.12% completed...
2017-06-19 22:56:27: 95.13% completed...
2017-06-19 22:56:29: 100.00% completed.
2017-06-19 22:56:29: End of calculation.
2017-06-19 22:56:29: Total calculation time: 41151 ms.
done
computing RF ...
done
All done!
9:29: End of calculation.
2017-06-19 22:49:29: Total calculation time: 34683 ms.
2017-06-19 22:49:29: 100.00% completed.
2017-06-19 22:49:29: End of calculation.
2017-06-19 22:49:29: Total calculation time: 34688 ms.
2017-06-19 22:49:29: 100.00% completed.
2017-06-19 22:49:29: End of calculation.
2017-06-19 22:49:29: Total calculation time: 34695 ms.
2017-06-19 22:49:29: 100.00% completed.
2017-06-19 22:49:29: End of calculation.
2017-06-19 22:49:29: Total calculation time: 34819 ms.
2017-06-19 22:49:29: 100.00% completed.
2017-06-19 22:49:29: End of calculation.
2017-06-19 22:49:29: Total calculation time: 34823 ms.
2017-06-19 22:49:30: 100.00% completed.
2017-06-19 22:49:30: End of calculation.
2017-06-19 22:49:30: Total calculation time: 34908 ms.
2017-06-19 22:49:30: 100.00% completed.
2017-06-19 22:49:30: End of calculation.
2017-06-19 22:49:30: Total calculation time: 34979 ms.
2017-06-19 22:49:30: 100.00% completed.
2017-06-19 22:49:30: End of calculation.
2017-06-19 22:49:30: Total calculation time: 35037 ms.
2017-06-19 22:49:30: 100.00% completed.
2017-06-19 22:49:30: End of calculation.
2017-06-19 22:49:30: Total calculation time: 35047 ms.
2017-06-19 22:49:30: 100.00% completed.
2017-06-19 22:49:30: End of calculation.
2017-06-19 22:49:30: Total calculation time: 35154 ms.
2017-06-19 22:49:30: 100.00% completed.
2017-06-19 22:49:30: End of calculation.
2017-06-19 22:49:30: Total calculation time: 35158 ms.
2017-06-19 22:49:30: 100.00% completed.
2017-06-19 22:49:30: End of calculation.
2017-06-19 22:49:30: Total calculation time: 35240 ms.
2017-06-19 22:49:30: 100.00% completed.
2017-06-19 22:49:30: End of calculation.
2017-06-19 22:49:30: Total calculation time: 35313 ms.
2017-06-19 22:49:30: 100.00% completed.
2017-06-19 22:49:30: End of calculation.
2017-06-19 22:49:30: Total calculation time: 35325 ms.
2017-06-19 22:49:30: 100.00% completed.
2017-06-19 22:49:30: End of calculation.
2017-06-19 22:49:30: Total calculation time: 35387 ms.
2017-06-19 22:49:30: 100.00% completed.
2017-06-19 22:49:30: End of calculation.
2017-06-19 22:49:30: Total calculation time: 35389 ms.
2017-06-19 22:49:30: 100.00% completed.
2017-06-19 22:49:30: End of calculation.
2017-06-19 22:49:30: Total calculation time: 35450 ms.
2017-06-19 22:49:30: 100.00% completed.
2017-06-19 22:49:30: End of calculation.
2017-06-19 22:49:30: Total calculation time: 35454 ms.
2017-06-19 22:49:30: 100.00% completed.
2017-06-19 22:49:30: End of calculation.
2017-06-19 22:49:30: Total calculation time: 35534 ms.
2017-06-19 22:49:30: 100.00% completed.
2017-06-19 22:49:30: End of calculation.
2017-06-19 22:49:30: Total calculation time: 35539 ms.
2017-06-19 22:49:30: 100.00% completed.
2017-06-19 22:49:30: End of calculation.
2017-06-19 22:49:30: Total calculation time: 35596 ms.
2017-06-19 22:49:30: 100.00% completed.
2017-06-19 22:49:30: End of calculation.
2017-06-19 22:49:30: Total calculation time: 35601 ms.
2017-06-19 22:49:30: 100.00% completed.
2017-06-19 22:49:30: End of calculation.
2017-06-19 22:49:30: Total calculation time: 35684 ms.
2017-06-19 22:49:30: 100.00% completed.
2017-06-19 22:49:30: End of calculation.
2017-06-19 22:49:30: Total calculation time: 35687 ms.
2017-06-19 22:49:30: 100.00% completed.
2017-06-19 22:49:30: End of calculation.
2017-06-19 22:49:30: Total calculation time: 35739 ms.
2017-06-19 22:49:30: 100.00% completed.
2017-06-19 22:49:30: End of calculation.
2017-06-19 22:49:30: Total calculation time: 35790 ms.
2017-06-19 22:49:30: 100.00% completed.
2017-06-19 22:49:30: End of calculation.
2017-06-19 22:49:30: Total calculation time: 35818 ms.
2017-06-19 22:49:30: 100.00% completed.
2017-06-19 22:49:30: End of calculation.
2017-06-19 22:49:30: Total calculation time: 35828 ms.
2017-06-19 22:49:30: 100.00% completed.
2017-06-19 22:49:31: End of calculation.
2017-06-19 22:49:31: Total calculation time: 35831 ms.
2017-06-19 22:49:31: 100.00% completed.
2017-06-19 22:49:31: End of calculation.
2017-06-19 22:49:31: Total calculation time: 35920 ms.
2017-06-19 22:49:31: 100.00% completed.
2017-06-19 22:49:31: End of calculation.
2017-06-19 22:49:31: Total calculation time: 36025 ms.
2017-06-19 22:49:31: 100.00% completed.
2017-06-19 22:49:31: End of calculation.
2017-06-19 22:49:31: Total calculation time: 36028 ms.
2017-06-19 22:49:31: 100.00% completed.
2017-06-19 22:49:31: End of calculation.
2017-06-19 22:49:31: Total calculation time: 36038 ms.
2017-06-19 22:49:31: 100.00% completed.
2017-06-19 22:49:31: End of calculation.
2017-06-19 22:49:31: Total calculation time: 36155 ms.
2017-06-19 22:49:31: 100.00% completed.
2017-06-19 22:49:31: End of calculation.
2017-06-19 22:49:31: Total calculation time: 36166 ms.
2017-06-19 22:49:31: 100.00% completed.
2017-06-19 22:49:31: End of calculation.
2017-06-19 22:49:31: Total calculation time: 36294 ms.
2017-06-19 22:49:31: 100.00% completed.
2017-06-19 22:49:31: End of calculation.
2017-06-19 22:49:31: Total calculation time: 36366 ms.
2017-06-19 22:49:31: 100.00% completed.
2017-06-19 22:49:31: End of calculation.
2017-06-19 22:49:31: Total calculation time: 36379 ms.
2017-06-19 22:49:31: 100.00% completed.
2017-06-19 22:49:31: End of calculation.
2017-06-19 22:49:31: Total calculation time: 36384 ms.
2017-06-19 22:49:31: 100.00% completed.
2017-06-19 22:49:31: End of calculation.
2017-06-19 22:49:31: Total calculation time: 36513 ms.
2017-06-19 22:49:31: 100.00% completed.
2017-06-19 22:49:31: End of calculation.
2017-06-19 22:49:31: Total calculation time: 36564 ms.
2017-06-19 22:49:31: 100.00% completed.
2017-06-19 22:49:31: End of calculation.
2017-06-19 22:49:31: Total calculation time: 36612 ms.
2017-06-19 22:49:31: 100.00% completed.
2017-06-19 22:49:31: End of calculation.
2017-06-19 22:49:31: Total calculation time: 36615 ms.
2017-06-19 22:49:31: 100.00% completed.
2017-06-19 22:49:31: End of calculation.
2017-06-19 22:49:31: Total calculation time: 36664 ms.
2017-06-19 22:49:31: 100.00% completed.
2017-06-19 22:49:31: End of calculation.
2017-06-19 22:49:31: Total calculation time: 36667 ms.
2017-06-19 22:49:31: 100.00% completed.
2017-06-19 22:49:31: End of calculation.
2017-06-19 22:49:31: Total calculation time: 36743 ms.
2017-06-19 22:49:31: 100.00% completed.
2017-06-19 22:49:31: End of calculation.
2017-06-19 22:49:31: Total calculation time: 36750 ms.
2017-06-19 22:49:31: 100.00% completed.
2017-06-19 22:49:31: End of calculation.
2017-06-19 22:49:31: Total calculation time: 36865 ms.
2017-06-19 22:49:31: 100.00% completed.
2017-06-19 22:49:31: End of calculation.
2017-06-19 22:49:31: Total calculation time: 36873 ms.
2017-06-19 22:49:32: 100.00% completed.
2017-06-19 22:49:32: End of calculation.
2017-06-19 22:49:32: Total calculation time: 36985 ms.
done
computing RF ...
done
All done!
