compute MS
TreeCmp version 1.0-b291

Active options:
Type of the analysis:  one-to-all comparison mode (-r)
Metrics:
  1. MatchingSplit (ms)
Input file: ../gene_trees/rooted_pruning/is.poly.gt.trees.2.48.trees
Output file: ../results/is.poly.trees.2.48.MS.dat
Additional options:
P - Prune compared trees if needed (trees can have different leaf sets).
-----
2017-06-19 22:14:41: Start of scanning input file: ../gene_trees/rooted_pruning/is.poly.gt.trees.2.48.trees
2017-06-19 22:14:56: End of scanning input file: ../gene_trees/rooted_pruning/is.poly.gt.trees.2.48.trees
2017-06-19 22:14:56: 1478 valid trees found in file: ../gene_trees/rooted_pruning/is.poly.gt.trees.2.48.trees
2017-06-19 22:14:57: Start of calculation...please wait...
2017-06-19 22:14:57: 0.00% completed...
2017-06-19 22:15:05: 5.01% completed...
2017-06-19 22:15:09: 10.01% completed...
2017-06-19 22:15:12: 15.02% completed...
2017-06-19 22:15:14: 20.03% completed...
2017-06-19 22:15:17: 25.03% completed...
2017-06-19 22:15:20: 30.04% completed...
2017-06-19 22:15:22: 35.05% completed...
2017-06-19 22:15:25: 40.05% completed...
2017-06-19 22:15:27: 45.06% completed...
2017-06-19 22:15:30: 50.07% completed...
2017-06-19 22:15:32: 55.07% completed...
2017-06-19 22:15:35: 60.08% completed...
2017-06-19 22:15:37: 65.09% completed...
2017-06-19 22:15:40: 70.09% completed...
2017-06-19 22:15:42: 75.10% completed...
2017-06-19 22:15:45: 80.11% completed...
2017-06-19 22:15:47: 85.12% completed...
2017-06-19 22:15:50: 90.12% completed...
2017-06-19 22:15:53: 95.13% completed...
2017-06-19 22:15:55: 100.00% completed.
2017-06-19 22:15:55: End of calculation.
2017-06-19 22:15:55: Total calculation time: 58467 ms.
compute RF
