computing MSdone
computing MS ...
TreeCmp version 1.0-b291

Active options:
Type of the analysis:  one-to-all comparison mode (-r)
Metrics:
  1. MatchingSplit (ms)
Input file: ../gene_trees/randprune/is.poly.gt.randprune.0.065.trees
Output file: ../results/is.poly.randprune.0.065.MS.dat
Additional options:
P - Prune compared trees if needed (trees can have different leaf sets).
-----
2017-06-19 22:52:42: Start of scanning input file: ../gene_trees/randprune/is.poly.gt.randprune.0.065.trees
2017-06-19 22:52:53: End of scanning input file: ../gene_trees/randprune/is.poly.gt.randprune.0.065.trees
2017-06-19 22:52:53: 1478 valid trees found in file: ../gene_trees/randprune/is.poly.gt.randprune.0.065.trees
2017-06-19 22:52:53: Start of calculation...please wait...
2017-06-19 22:52:53: 0.00% completed...
2017-06-19 22:52:58: 5.01% completed...
2017-06-19 22:53:00: 10.01% completed...
2017-06-19 22:53:02: 15.02% completed...
2017-06-19 22:53:05: 20.03% completed...
2017-06-19 22:53:07: 25.03% completed...
2017-06-19 22:53:09: 30.04% completed...
2017-06-19 22:53:11: 35.05% completed...
2017-06-19 22:53:13: 40.05% completed...
2017-06-19 22:53:15: 45.06% completed...
2017-06-19 22:53:17: 50.07% completed...
2017-06-19 22:53:20: 55.07% completed...
2017-06-19 22:53:22: 60.08% completed...
2017-06-19 22:53:24: 65.09% completed...
2017-06-19 22:53:26: 70.09% completed...
2017-06-19 22:53:28: 75.10% completed...
2017-06-19 22:53:30: 80.11% completed...
2017-06-19 22:53:33: 85.12% completed...
2017-06-19 22:53:35: 90.12% completed...
2017-06-19 22:53:37: 95.13% completed...
2017-06-19 22:53:39: 100.00% completed.
2017-06-19 22:53:39: End of calculation.
2017-06-19 22:53:39: Total calculation time: 46077 ms.
done
computing RF ...
done
All done!
50:24: End of calculation.
2017-06-19 22:50:24: Total calculation time: 50546 ms.
2017-06-19 22:50:24: 100.00% completed.
2017-06-19 22:50:24: End of calculation.
2017-06-19 22:50:24: Total calculation time: 50621 ms.
2017-06-19 22:50:24: 100.00% completed.
2017-06-19 22:50:24: End of calculation.
2017-06-19 22:50:24: Total calculation time: 50689 ms.
2017-06-19 22:50:24: 100.00% completed.
2017-06-19 22:50:24: End of calculation.
2017-06-19 22:50:24: Total calculation time: 50704 ms.
2017-06-19 22:50:24: 100.00% completed.
2017-06-19 22:50:24: End of calculation.
2017-06-19 22:50:24: Total calculation time: 50759 ms.
2017-06-19 22:50:24: 100.00% completed.
2017-06-19 22:50:24: End of calculation.
2017-06-19 22:50:24: Total calculation time: 50763 ms.
2017-06-19 22:50:24: 100.00% completed.
2017-06-19 22:50:24: End of calculation.
2017-06-19 22:50:24: Total calculation time: 50822 ms.
2017-06-19 22:50:24: 100.00% completed.
2017-06-19 22:50:24: End of calculation.
2017-06-19 22:50:24: Total calculation time: 50901 ms.
2017-06-19 22:50:24: 100.00% completed.
2017-06-19 22:50:24: End of calculation.
2017-06-19 22:50:24: Total calculation time: 50957 ms.
2017-06-19 22:50:24: 100.00% completed.
2017-06-19 22:50:24: End of calculation.
2017-06-19 22:50:24: Total calculation time: 50962 ms.
2017-06-19 22:50:24: 100.00% completed.
2017-06-19 22:50:24: End of calculation.
2017-06-19 22:50:24: Total calculation time: 50977 ms.
2017-06-19 22:50:24: 100.00% completed.
2017-06-19 22:50:24: End of calculation.
2017-06-19 22:50:24: Total calculation time: 51045 ms.
2017-06-19 22:50:24: 100.00% completed.
2017-06-19 22:50:25: End of calculation.
2017-06-19 22:50:25: Total calculation time: 51049 ms.
2017-06-19 22:50:25: 100.00% completed.
2017-06-19 22:50:25: End of calculation.
2017-06-19 22:50:25: Total calculation time: 51164 ms.
2017-06-19 22:50:25: 100.00% completed.
2017-06-19 22:50:25: End of calculation.
2017-06-19 22:50:25: Total calculation time: 51209 ms.
2017-06-19 22:50:25: 100.00% completed.
2017-06-19 22:50:25: End of calculation.
2017-06-19 22:50:25: Total calculation time: 51212 ms.
2017-06-19 22:50:25: 100.00% completed.
2017-06-19 22:50:25: End of calculation.
2017-06-19 22:50:25: Total calculation time: 51271 ms.
2017-06-19 22:50:25: 100.00% completed.
2017-06-19 22:50:25: End of calculation.
2017-06-19 22:50:25: Total calculation time: 51337 ms.
2017-06-19 22:50:25: 100.00% completed.
2017-06-19 22:50:25: End of calculation.
2017-06-19 22:50:25: Total calculation time: 51339 ms.
2017-06-19 22:50:25: 100.00% completed.
2017-06-19 22:50:25: End of calculation.
2017-06-19 22:50:25: Total calculation time: 51342 ms.
2017-06-19 22:50:25: 100.00% completed.
2017-06-19 22:50:25: End of calculation.
2017-06-19 22:50:25: Total calculation time: 51351 ms.
2017-06-19 22:50:25: 100.00% completed.
2017-06-19 22:50:25: End of calculation.
2017-06-19 22:50:25: Total calculation time: 51439 ms.
2017-06-19 22:50:25: 100.00% completed.
2017-06-19 22:50:25: End of calculation.
2017-06-19 22:50:25: Total calculation time: 51490 ms.
2017-06-19 22:50:25: 100.00% completed.
2017-06-19 22:50:25: End of calculation.
2017-06-19 22:50:25: Total calculation time: 51532 ms.
2017-06-19 22:50:25: 100.00% completed.
2017-06-19 22:50:25: End of calculation.
2017-06-19 22:50:25: Total calculation time: 51535 ms.
2017-06-19 22:50:25: 100.00% completed.
2017-06-19 22:50:25: End of calculation.
2017-06-19 22:50:25: Total calculation time: 51599 ms.
2017-06-19 22:50:25: 100.00% completed.
2017-06-19 22:50:25: End of calculation.
2017-06-19 22:50:25: Total calculation time: 51623 ms.
2017-06-19 22:50:25: 100.00% completed.
2017-06-19 22:50:25: End of calculation.
2017-06-19 22:50:25: Total calculation time: 51655 ms.
2017-06-19 22:50:25: 100.00% completed.
2017-06-19 22:50:25: End of calculation.
2017-06-19 22:50:25: Total calculation time: 51706 ms.
2017-06-19 22:50:25: 100.00% completed.
2017-06-19 22:50:25: End of calculation.
2017-06-19 22:50:25: Total calculation time: 51762 ms.
2017-06-19 22:50:25: 100.00% completed.
2017-06-19 22:50:25: End of calculation.
2017-06-19 22:50:25: Total calculation time: 51765 ms.
2017-06-19 22:50:25: 100.00% completed.
2017-06-19 22:50:25: End of calculation.
2017-06-19 22:50:25: Total calculation time: 51821 ms.
2017-06-19 22:50:25: 100.00% completed.
2017-06-19 22:50:25: End of calculation.
2017-06-19 22:50:25: Total calculation time: 51827 ms.
2017-06-19 22:50:25: 100.00% completed.
2017-06-19 22:50:25: End of calculation.
2017-06-19 22:50:25: Total calculation time: 51888 ms.
2017-06-19 22:50:25: 100.00% completed.
2017-06-19 22:50:25: End of calculation.
2017-06-19 22:50:25: Total calculation time: 51905 ms.
2017-06-19 22:50:25: 100.00% completed.
2017-06-19 22:50:25: End of calculation.
2017-06-19 22:50:25: Total calculation time: 51908 ms.
2017-06-19 22:50:25: 100.00% completed.
2017-06-19 22:50:25: End of calculation.
2017-06-19 22:50:25: Total calculation time: 52019 ms.
2017-06-19 22:50:25: 100.00% completed.
2017-06-19 22:50:25: End of calculation.
2017-06-19 22:50:25: Total calculation time: 52025 ms.
2017-06-19 22:50:26: 100.00% completed.
2017-06-19 22:50:26: End of calculation.
2017-06-19 22:50:26: Total calculation time: 52108 ms.
2017-06-19 22:50:26: 100.00% completed.
2017-06-19 22:50:26: End of calculation.
2017-06-19 22:50:26: Total calculation time: 52122 ms.
2017-06-19 22:50:26: 100.00% completed.
2017-06-19 22:50:26: End of calculation.
2017-06-19 22:50:26: Total calculation time: 52125 ms.
2017-06-19 22:50:26: 100.00% completed.
2017-06-19 22:50:26: End of calculation.
2017-06-19 22:50:26: Total calculation time: 52241 ms.
2017-06-19 22:50:26: 100.00% completed.
2017-06-19 22:50:26: End of calculation.
2017-06-19 22:50:26: Total calculation time: 52262 ms.
2017-06-19 22:50:26: 100.00% completed.
2017-06-19 22:50:26: End of calculation.
2017-06-19 22:50:26: Total calculation time: 52265 ms.
2017-06-19 22:50:26: 100.00% completed.
2017-06-19 22:50:26: End of calculation.
2017-06-19 22:50:26: Total calculation time: 52343 ms.
2017-06-19 22:50:26: 100.00% completed.
2017-06-19 22:50:26: End of calculation.
2017-06-19 22:50:26: Total calculation time: 52403 ms.
2017-06-19 22:50:26: 100.00% completed.
2017-06-19 22:50:26: End of calculation.
2017-06-19 22:50:26: Total calculation time: 52463 ms.
2017-06-19 22:50:26: 100.00% completed.
2017-06-19 22:50:26: End of calculation.
2017-06-19 22:50:26: Total calculation time: 52466 ms.
2017-06-19 22:50:26: 100.00% completed.
2017-06-19 22:50:26: End of calculation.
2017-06-19 22:50:26: Total calculation time: 52537 ms.
2017-06-19 22:50:26: 100.00% completed.
2017-06-19 22:50:26: End of calculation.
2017-06-19 22:50:26: Total calculation time: 52589 ms.
2017-06-19 22:50:26: 100.00% completed.
2017-06-19 22:50:26: End of calculation.
2017-06-19 22:50:26: Total calculation time: 52592 ms.
2017-06-19 22:50:26: 100.00% completed.
2017-06-19 22:50:26: End of calculation.
2017-06-19 22:50:26: Total calculation time: 52627 ms.
2017-06-19 22:50:26: 100.00% completed.
2017-06-19 22:50:26: End of calculation.
2017-06-19 22:50:26: Total calculation time: 52669 ms.
2017-06-19 22:50:26: 100.00% completed.
2017-06-19 22:50:26: End of calculation.
2017-06-19 22:50:26: Total calculation time: 52673 ms.
2017-06-19 22:50:26: 100.00% completed.
2017-06-19 22:50:26: End of calculation.
2017-06-19 22:50:26: Total calculation time: 52676 ms.
2017-06-19 22:50:26: 100.00% completed.
2017-06-19 22:50:26: End of calculation.
2017-06-19 22:50:26: Total calculation time: 52743 ms.
2017-06-19 22:50:26: 100.00% completed.
2017-06-19 22:50:26: End of calculation.
2017-06-19 22:50:26: Total calculation time: 52790 ms.
2017-06-19 22:50:26: 100.00% completed.
2017-06-19 22:50:26: End of calculation.
2017-06-19 22:50:26: Total calculation time: 52795 ms.
2017-06-19 22:50:26: 100.00% completed.
2017-06-19 22:50:26: End of calculation.
2017-06-19 22:50:26: Total calculation time: 52858 ms.
2017-06-19 22:50:26: 100.00% completed.
2017-06-19 22:50:26: End of calculation.
2017-06-19 22:50:26: Total calculation time: 52861 ms.
2017-06-19 22:50:26: 100.00% completed.
2017-06-19 22:50:26: End of calculation.
2017-06-19 22:50:26: Total calculation time: 52897 ms.
2017-06-19 22:50:26: 100.00% completed.
2017-06-19 22:50:26: End of calculation.
2017-06-19 22:50:26: Total calculation time: 52941 ms.
2017-06-19 22:50:26: 100.00% completed.
2017-06-19 22:50:26: End of calculation.
2017-06-19 22:50:26: Total calculation time: 52944 ms.
2017-06-19 22:50:26: 100.00% completed.
2017-06-19 22:50:26: End of calculation.
2017-06-19 22:50:26: Total calculation time: 53001 ms.
2017-06-19 22:50:26: 100.00% completed.
2017-06-19 22:50:26: End of calculation.
2017-06-19 22:50:26: Total calculation time: 53004 ms.
2017-06-19 22:50:26: 100.00% completed.
2017-06-19 22:50:26: End of calculation.
2017-06-19 22:50:26: Total calculation time: 53043 ms.
2017-06-19 22:50:27: 100.00% completed.
2017-06-19 22:50:27: End of calculation.
2017-06-19 22:50:27: Total calculation time: 53092 ms.
2017-06-19 22:50:27: 100.00% completed.
2017-06-19 22:50:27: End of calculation.
2017-06-19 22:50:27: Total calculation time: 53094 ms.
2017-06-19 22:50:27: 100.00% completed.
2017-06-19 22:50:27: End of calculation.
2017-06-19 22:50:27: Total calculation time: 53103 ms.
2017-06-19 22:50:27: 100.00% completed.
2017-06-19 22:50:27: End of calculation.
2017-06-19 22:50:27: Total calculation time: 53191 ms.
2017-06-19 22:50:27: 100.00% completed.
2017-06-19 22:50:27: End of calculation.
2017-06-19 22:50:27: Total calculation time: 53194 ms.
2017-06-19 22:50:27: 100.00% completed.
2017-06-19 22:50:27: End of calculation.
2017-06-19 22:50:27: Total calculation time: 53265 ms.
2017-06-19 22:50:27: 100.00% completed.
2017-06-19 22:50:27: End of calculation.
2017-06-19 22:50:27: Total calculation time: 53268 ms.
2017-06-19 22:50:27: 100.00% completed.
2017-06-19 22:50:27: End of calculation.
2017-06-19 22:50:27: Total calculation time: 53271 ms.
2017-06-19 22:50:27: 100.00% completed.
2017-06-19 22:50:27: End of calculation.
2017-06-19 22:50:27: Total calculation time: 53356 ms.
2017-06-19 22:50:27: 100.00% completed.
2017-06-19 22:50:27: End of calculation.
2017-06-19 22:50:27: Total calculation time: 53407 ms.
2017-06-19 22:50:27: 100.00% completed.
2017-06-19 22:50:27: End of calculation.
2017-06-19 22:50:27: Total calculation time: 53412 ms.
2017-06-19 22:50:27: 100.00% completed.
2017-06-19 22:50:27: End of calculation.
2017-06-19 22:50:27: Total calculation time: 53507 ms.
2017-06-19 22:50:27: 100.00% completed.
2017-06-19 22:50:27: End of calculation.
2017-06-19 22:50:27: Total calculation time: 53571 ms.
2017-06-19 22:50:27: 100.00% completed.
2017-06-19 22:50:27: End of calculation.
2017-06-19 22:50:27: Total calculation time: 53621 ms.
2017-06-19 22:50:27: 100.00% completed.
2017-06-19 22:50:27: End of calculation.
2017-06-19 22:50:27: Total calculation time: 53693 ms.
2017-06-19 22:50:27: 100.00% completed.
2017-06-19 22:50:27: End of calculation.
2017-06-19 22:50:27: Total calculation time: 53697 ms.
2017-06-19 22:50:27: 100.00% completed.
2017-06-19 22:50:27: End of calculation.
2017-06-19 22:50:27: Total calculation time: 53700 ms.
2017-06-19 22:50:27: 100.00% completed.
2017-06-19 22:50:27: End of calculation.
2017-06-19 22:50:27: Total calculation time: 53788 ms.
2017-06-19 22:50:27: 100.00% completed.
2017-06-19 22:50:27: End of calculation.
2017-06-19 22:50:27: Total calculation time: 53791 ms.
2017-06-19 22:50:27: 100.00% completed.
2017-06-19 22:50:27: End of calculation.
2017-06-19 22:50:27: Total calculation time: 53868 ms.
2017-06-19 22:50:27: 100.00% completed.
2017-06-19 22:50:27: End of calculation.
2017-06-19 22:50:27: Total calculation time: 53913 ms.
2017-06-19 22:50:27: 100.00% completed.
2017-06-19 22:50:27: End of calculation.
2017-06-19 22:50:27: Total calculation time: 53959 ms.
2017-06-19 22:50:27: 100.00% completed.
2017-06-19 22:50:27: End of calculation.
2017-06-19 22:50:27: Total calculation time: 54005 ms.
2017-06-19 22:50:27: 100.00% completed.
2017-06-19 22:50:27: End of calculation.
2017-06-19 22:50:27: Total calculation time: 54041 ms.
2017-06-19 22:50:27: 100.00% completed.
2017-06-19 22:50:27: End of calculation.
2017-06-19 22:50:27: Total calculation time: 54043 ms.
2017-06-19 22:50:27: 100.00% completed.
2017-06-19 22:50:27: End of calculation.
2017-06-19 22:50:27: Total calculation time: 54047 ms.
2017-06-19 22:50:28: 100.00% completed.
2017-06-19 22:50:28: End of calculation.
2017-06-19 22:50:28: Total calculation time: 54139 ms.
2017-06-19 22:50:28: 100.00% completed.
2017-06-19 22:50:28: End of calculation.
2017-06-19 22:50:28: Total calculation time: 54179 ms.
2017-06-19 22:50:28: 100.00% completed.
2017-06-19 22:50:28: End of calculation.
2017-06-19 22:50:28: Total calculation time: 54182 ms.
2017-06-19 22:50:28: 100.00% completed.
2017-06-19 22:50:28: End of calculation.
2017-06-19 22:50:28: Total calculation time: 54252 ms.
2017-06-19 22:50:28: 100.00% completed.
2017-06-19 22:50:28: End of calculation.
2017-06-19 22:50:28: Total calculation time: 54255 ms.
2017-06-19 22:50:28: 100.00% completed.
2017-06-19 22:50:28: End of calculation.
2017-06-19 22:50:28: Total calculation time: 54322 ms.
2017-06-19 22:50:28: 100.00% completed.
2017-06-19 22:50:28: End of calculation.
2017-06-19 22:50:28: Total calculation time: 54327 ms.
2017-06-19 22:50:28: 100.00% completed.
2017-06-19 22:50:28: End of calculation.
2017-06-19 22:50:28: Total calculation time: 54398 ms.
2017-06-19 22:50:28: 100.00% completed.
2017-06-19 22:50:28: End of calculation.
2017-06-19 22:50:28: Total calculation time: 54454 ms.
2017-06-19 22:50:28: 100.00% completed.
2017-06-19 22:50:28: End of calculation.
2017-06-19 22:50:28: Total calculation time: 54501 ms.
2017-06-19 22:50:28: 100.00% completed.
2017-06-19 22:50:28: End of calculation.
2017-06-19 22:50:28: Total calculation time: 54504 ms.
2017-06-19 22:50:28: 100.00% completed.
2017-06-19 22:50:28: End of calculation.
2017-06-19 22:50:28: Total calculation time: 54547 ms.
2017-06-19 22:50:28: 100.00% completed.
2017-06-19 22:50:28: End of calculation.
2017-06-19 22:50:28: Total calculation time: 54584 ms.
done
computing RF ...
done
All done!
