computing MSdone
computing MS ...
TreeCmp version 1.0-b291

Active options:
Type of the analysis:  one-to-all comparison mode (-r)
Metrics:
  1. MatchingSplit (ms)
Input file: ../gene_trees/randprune/is.poly.gt.randprune.0.075.trees
Output file: ../results/is.poly.randprune.0.075.MS.dat
Additional options:
P - Prune compared trees if needed (trees can have different leaf sets).
-----
2017-06-19 22:53:27: Start of scanning input file: ../gene_trees/randprune/is.poly.gt.randprune.0.075.trees
2017-06-19 22:53:38: End of scanning input file: ../gene_trees/randprune/is.poly.gt.randprune.0.075.trees
2017-06-19 22:53:38: 1478 valid trees found in file: ../gene_trees/randprune/is.poly.gt.randprune.0.075.trees
2017-06-19 22:53:38: Start of calculation...please wait...
2017-06-19 22:53:39: 0.00% completed...
2017-06-19 22:53:43: 5.01% completed...
2017-06-19 22:53:46: 10.01% completed...
2017-06-19 22:53:48: 15.02% completed...
2017-06-19 22:53:50: 20.03% completed...
2017-06-19 22:53:52: 25.03% completed...
2017-06-19 22:53:54: 30.04% completed...
2017-06-19 22:53:56: 35.05% completed...
2017-06-19 22:53:58: 40.05% completed...
2017-06-19 22:54:00: 45.06% completed...
2017-06-19 22:54:02: 50.07% completed...
2017-06-19 22:54:04: 55.07% completed...
2017-06-19 22:54:07: 60.08% completed...
2017-06-19 22:54:09: 65.09% completed...
2017-06-19 22:54:11: 70.09% completed...
2017-06-19 22:54:13: 75.10% completed...
2017-06-19 22:54:15: 80.11% completed...
2017-06-19 22:54:18: 85.12% completed...
2017-06-19 22:54:20: 90.12% completed...
2017-06-19 22:54:23: 95.13% completed...
2017-06-19 22:54:24: 100.00% completed.
2017-06-19 22:54:24: End of calculation.
2017-06-19 22:54:24: Total calculation time: 45761 ms.
done
computing RF ...
done
All done!
0:10: End of calculation.
2017-06-19 22:50:10: Total calculation time: 48603 ms.
2017-06-19 22:50:10: 100.00% completed.
2017-06-19 22:50:10: End of calculation.
2017-06-19 22:50:10: Total calculation time: 48686 ms.
2017-06-19 22:50:10: 100.00% completed.
2017-06-19 22:50:10: End of calculation.
2017-06-19 22:50:10: Total calculation time: 48750 ms.
2017-06-19 22:50:10: 100.00% completed.
2017-06-19 22:50:10: End of calculation.
2017-06-19 22:50:10: Total calculation time: 48798 ms.
2017-06-19 22:50:10: 100.00% completed.
2017-06-19 22:50:10: End of calculation.
2017-06-19 22:50:10: Total calculation time: 48910 ms.
2017-06-19 22:50:11: 100.00% completed.
2017-06-19 22:50:11: End of calculation.
2017-06-19 22:50:11: Total calculation time: 48975 ms.
2017-06-19 22:50:11: 100.00% completed.
2017-06-19 22:50:11: End of calculation.
2017-06-19 22:50:11: Total calculation time: 48998 ms.
2017-06-19 22:50:11: 100.00% completed.
2017-06-19 22:50:11: End of calculation.
2017-06-19 22:50:11: Total calculation time: 49149 ms.
2017-06-19 22:50:11: 100.00% completed.
2017-06-19 22:50:11: End of calculation.
2017-06-19 22:50:11: Total calculation time: 49176 ms.
2017-06-19 22:50:11: 100.00% completed.
2017-06-19 22:50:11: End of calculation.
2017-06-19 22:50:11: Total calculation time: 49264 ms.
2017-06-19 22:50:11: 100.00% completed.
2017-06-19 22:50:11: End of calculation.
2017-06-19 22:50:11: Total calculation time: 49314 ms.
2017-06-19 22:50:11: 100.00% completed.
2017-06-19 22:50:11: End of calculation.
2017-06-19 22:50:11: Total calculation time: 49320 ms.
2017-06-19 22:50:11: 100.00% completed.
2017-06-19 22:50:11: End of calculation.
2017-06-19 22:50:11: Total calculation time: 49377 ms.
2017-06-19 22:50:11: 100.00% completed.
2017-06-19 22:50:11: End of calculation.
2017-06-19 22:50:11: Total calculation time: 49442 ms.
2017-06-19 22:50:11: 100.00% completed.
2017-06-19 22:50:11: End of calculation.
2017-06-19 22:50:11: Total calculation time: 49493 ms.
2017-06-19 22:50:11: 100.00% completed.
2017-06-19 22:50:11: End of calculation.
2017-06-19 22:50:11: Total calculation time: 49497 ms.
2017-06-19 22:50:11: 100.00% completed.
2017-06-19 22:50:11: End of calculation.
2017-06-19 22:50:11: Total calculation time: 49589 ms.
2017-06-19 22:50:11: 100.00% completed.
2017-06-19 22:50:11: End of calculation.
2017-06-19 22:50:11: Total calculation time: 49593 ms.
2017-06-19 22:50:11: 100.00% completed.
2017-06-19 22:50:11: End of calculation.
2017-06-19 22:50:11: Total calculation time: 49697 ms.
2017-06-19 22:50:11: 100.00% completed.
2017-06-19 22:50:11: End of calculation.
2017-06-19 22:50:11: Total calculation time: 49702 ms.
2017-06-19 22:50:11: 100.00% completed.
2017-06-19 22:50:11: End of calculation.
2017-06-19 22:50:11: Total calculation time: 49814 ms.
2017-06-19 22:50:11: 100.00% completed.
2017-06-19 22:50:11: End of calculation.
2017-06-19 22:50:11: Total calculation time: 49869 ms.
2017-06-19 22:50:11: 100.00% completed.
2017-06-19 22:50:11: End of calculation.
2017-06-19 22:50:11: Total calculation time: 49929 ms.
2017-06-19 22:50:12: 100.00% completed.
2017-06-19 22:50:12: End of calculation.
2017-06-19 22:50:12: Total calculation time: 50031 ms.
2017-06-19 22:50:12: 100.00% completed.
2017-06-19 22:50:12: End of calculation.
2017-06-19 22:50:12: Total calculation time: 50034 ms.
2017-06-19 22:50:12: 100.00% completed.
2017-06-19 22:50:12: End of calculation.
2017-06-19 22:50:12: Total calculation time: 50108 ms.
2017-06-19 22:50:12: 100.00% completed.
2017-06-19 22:50:12: End of calculation.
2017-06-19 22:50:12: Total calculation time: 50188 ms.
2017-06-19 22:50:12: 100.00% completed.
2017-06-19 22:50:12: End of calculation.
2017-06-19 22:50:12: Total calculation time: 50198 ms.
2017-06-19 22:50:12: 100.00% completed.
2017-06-19 22:50:12: End of calculation.
2017-06-19 22:50:12: Total calculation time: 50281 ms.
2017-06-19 22:50:12: 100.00% completed.
2017-06-19 22:50:12: End of calculation.
2017-06-19 22:50:12: Total calculation time: 50341 ms.
2017-06-19 22:50:12: 100.00% completed.
2017-06-19 22:50:12: End of calculation.
2017-06-19 22:50:12: Total calculation time: 50393 ms.
2017-06-19 22:50:12: 100.00% completed.
2017-06-19 22:50:12: End of calculation.
2017-06-19 22:50:12: Total calculation time: 50396 ms.
2017-06-19 22:50:12: 100.00% completed.
2017-06-19 22:50:12: End of calculation.
2017-06-19 22:50:12: Total calculation time: 50490 ms.
2017-06-19 22:50:12: 100.00% completed.
2017-06-19 22:50:12: End of calculation.
2017-06-19 22:50:12: Total calculation time: 50492 ms.
2017-06-19 22:50:12: 100.00% completed.
2017-06-19 22:50:12: End of calculation.
2017-06-19 22:50:12: Total calculation time: 50564 ms.
2017-06-19 22:50:12: 100.00% completed.
2017-06-19 22:50:12: End of calculation.
2017-06-19 22:50:12: Total calculation time: 50612 ms.
2017-06-19 22:50:12: 100.00% completed.
2017-06-19 22:50:12: End of calculation.
2017-06-19 22:50:12: Total calculation time: 50616 ms.
2017-06-19 22:50:12: 100.00% completed.
2017-06-19 22:50:12: End of calculation.
2017-06-19 22:50:12: Total calculation time: 50715 ms.
2017-06-19 22:50:12: 100.00% completed.
2017-06-19 22:50:12: End of calculation.
2017-06-19 22:50:12: Total calculation time: 50720 ms.
2017-06-19 22:50:12: 100.00% completed.
2017-06-19 22:50:12: End of calculation.
2017-06-19 22:50:12: Total calculation time: 50815 ms.
2017-06-19 22:50:12: 100.00% completed.
2017-06-19 22:50:12: End of calculation.
2017-06-19 22:50:12: Total calculation time: 50818 ms.
2017-06-19 22:50:12: 100.00% completed.
2017-06-19 22:50:12: End of calculation.
2017-06-19 22:50:12: Total calculation time: 50873 ms.
2017-06-19 22:50:12: 100.00% completed.
2017-06-19 22:50:12: End of calculation.
2017-06-19 22:50:12: Total calculation time: 50949 ms.
2017-06-19 22:50:13: 100.00% completed.
2017-06-19 22:50:13: End of calculation.
2017-06-19 22:50:13: Total calculation time: 51021 ms.
2017-06-19 22:50:13: 100.00% completed.
2017-06-19 22:50:13: End of calculation.
2017-06-19 22:50:13: Total calculation time: 51024 ms.
2017-06-19 22:50:13: 100.00% completed.
2017-06-19 22:50:13: End of calculation.
2017-06-19 22:50:13: Total calculation time: 51171 ms.
2017-06-19 22:50:13: 100.00% completed.
2017-06-19 22:50:13: End of calculation.
2017-06-19 22:50:13: Total calculation time: 51248 ms.
2017-06-19 22:50:13: 100.00% completed.
2017-06-19 22:50:13: End of calculation.
2017-06-19 22:50:13: Total calculation time: 51268 ms.
2017-06-19 22:50:13: 100.00% completed.
2017-06-19 22:50:13: End of calculation.
2017-06-19 22:50:13: Total calculation time: 51270 ms.
2017-06-19 22:50:13: 100.00% completed.
2017-06-19 22:50:13: End of calculation.
2017-06-19 22:50:13: Total calculation time: 51333 ms.
2017-06-19 22:50:13: 100.00% completed.
2017-06-19 22:50:13: End of calculation.
2017-06-19 22:50:13: Total calculation time: 51385 ms.
2017-06-19 22:50:13: 100.00% completed.
2017-06-19 22:50:13: End of calculation.
2017-06-19 22:50:13: Total calculation time: 51389 ms.
2017-06-19 22:50:13: 100.00% completed.
2017-06-19 22:50:13: End of calculation.
2017-06-19 22:50:13: Total calculation time: 51512 ms.
2017-06-19 22:50:13: 100.00% completed.
2017-06-19 22:50:13: End of calculation.
2017-06-19 22:50:13: Total calculation time: 51517 ms.
2017-06-19 22:50:13: 100.00% completed.
2017-06-19 22:50:13: End of calculation.
2017-06-19 22:50:13: Total calculation time: 51593 ms.
2017-06-19 22:50:13: 100.00% completed.
2017-06-19 22:50:13: End of calculation.
2017-06-19 22:50:13: Total calculation time: 51631 ms.
2017-06-19 22:50:13: 100.00% completed.
2017-06-19 22:50:13: End of calculation.
2017-06-19 22:50:13: Total calculation time: 51778 ms.
2017-06-19 22:50:13: 100.00% completed.
2017-06-19 22:50:13: End of calculation.
2017-06-19 22:50:13: Total calculation time: 51783 ms.
2017-06-19 22:50:13: 100.00% completed.
2017-06-19 22:50:13: End of calculation.
2017-06-19 22:50:13: Total calculation time: 51786 ms.
2017-06-19 22:50:13: 100.00% completed.
2017-06-19 22:50:13: End of calculation.
2017-06-19 22:50:13: Total calculation time: 51856 ms.
2017-06-19 22:50:13: 100.00% completed.
2017-06-19 22:50:13: End of calculation.
2017-06-19 22:50:13: Total calculation time: 51859 ms.
2017-06-19 22:50:13: 100.00% completed.
2017-06-19 22:50:13: End of calculation.
2017-06-19 22:50:13: Total calculation time: 51951 ms.
2017-06-19 22:50:13: 100.00% completed.
2017-06-19 22:50:13: End of calculation.
2017-06-19 22:50:13: Total calculation time: 51952 ms.
2017-06-19 22:50:14: 100.00% completed.
2017-06-19 22:50:14: End of calculation.
2017-06-19 22:50:14: Total calculation time: 52040 ms.
2017-06-19 22:50:14: 100.00% completed.
2017-06-19 22:50:14: End of calculation.
2017-06-19 22:50:14: Total calculation time: 52079 ms.
2017-06-19 22:50:14: 100.00% completed.
2017-06-19 22:50:14: End of calculation.
2017-06-19 22:50:14: Total calculation time: 52082 ms.
2017-06-19 22:50:14: 100.00% completed.
2017-06-19 22:50:14: End of calculation.
2017-06-19 22:50:14: Total calculation time: 52169 ms.
2017-06-19 22:50:14: 100.00% completed.
2017-06-19 22:50:14: End of calculation.
2017-06-19 22:50:14: Total calculation time: 52235 ms.
2017-06-19 22:50:14: 100.00% completed.
2017-06-19 22:50:14: End of calculation.
2017-06-19 22:50:14: Total calculation time: 52287 ms.
2017-06-19 22:50:14: 100.00% completed.
2017-06-19 22:50:14: End of calculation.
2017-06-19 22:50:14: Total calculation time: 52291 ms.
2017-06-19 22:50:14: 100.00% completed.
2017-06-19 22:50:14: End of calculation.
2017-06-19 22:50:14: Total calculation time: 52395 ms.
2017-06-19 22:50:14: 100.00% completed.
2017-06-19 22:50:14: End of calculation.
2017-06-19 22:50:14: Total calculation time: 52398 ms.
2017-06-19 22:50:14: 100.00% completed.
2017-06-19 22:50:14: End of calculation.
2017-06-19 22:50:14: Total calculation time: 52405 ms.
2017-06-19 22:50:14: 100.00% completed.
2017-06-19 22:50:14: End of calculation.
2017-06-19 22:50:14: Total calculation time: 52512 ms.
2017-06-19 22:50:14: 100.00% completed.
2017-06-19 22:50:14: End of calculation.
2017-06-19 22:50:14: Total calculation time: 52526 ms.
2017-06-19 22:50:14: 100.00% completed.
2017-06-19 22:50:14: End of calculation.
2017-06-19 22:50:14: Total calculation time: 52530 ms.
2017-06-19 22:50:14: 100.00% completed.
2017-06-19 22:50:14: End of calculation.
2017-06-19 22:50:14: Total calculation time: 52637 ms.
2017-06-19 22:50:14: 100.00% completed.
2017-06-19 22:50:14: End of calculation.
2017-06-19 22:50:14: Total calculation time: 52710 ms.
2017-06-19 22:50:14: 100.00% completed.
2017-06-19 22:50:14: End of calculation.
2017-06-19 22:50:14: Total calculation time: 52724 ms.
2017-06-19 22:50:14: 100.00% completed.
2017-06-19 22:50:14: End of calculation.
2017-06-19 22:50:14: Total calculation time: 52777 ms.
2017-06-19 22:50:14: 100.00% completed.
2017-06-19 22:50:14: End of calculation.
2017-06-19 22:50:14: Total calculation time: 52785 ms.
done
computing RF ...
done
All done!
