computing MS ...
TreeCmp version 1.0-b291

Active options:
Type of the analysis:  one-to-all comparison mode (-r)
Metrics:
  1. MatchingSplit (ms)
Input file: ../gene_trees/LBF/is.poly.gt.LBF.0.060.trees
Output file: ../results/is.poly.0.060.MS.dat
Additional options:
P - Prune compared trees if needed (trees can have different leaf sets).
-----
2017-06-19 22:16:22: Start of scanning input file: ../gene_trees/LBF/is.poly.gt.LBF.0.060.trees
2017-06-19 22:16:42: End of scanning input file: ../gene_trees/LBF/is.poly.gt.LBF.0.060.trees
2017-06-19 22:16:42: 1478 valid trees found in file: ../gene_trees/LBF/is.poly.gt.LBF.0.060.trees
2017-06-19 22:16:42: Start of calculation...please wait...
2017-06-19 22:16:42: 0.00% completed...
2017-06-19 22:16:53: 5.01% completed...
2017-06-19 22:16:57: 10.01% completed...
2017-06-19 22:17:01: 15.02% completed...
2017-06-19 22:17:05: 20.03% completed...
2017-06-19 22:17:09: 25.03% completed...
2017-06-19 22:17:12: 30.04% completed...
2017-06-19 22:17:16: 35.05% completed...
2017-06-19 22:17:19: 40.05% completed...
2017-06-19 22:17:22: 45.06% completed...
2017-06-19 22:17:26: 50.07% completed...
2017-06-19 22:17:29: 55.07% completed...
2017-06-19 22:17:32: 60.08% completed...
2017-06-19 22:17:35: 65.09% completed...
2017-06-19 22:17:39: 70.09% completed...
2017-06-19 22:17:42: 75.10% completed...
2017-06-19 22:17:45: 80.11% completed...
2017-06-19 22:17:49: 85.12% completed...
2017-06-19 22:17:52: 90.12% completed...
2017-06-19 22:17:55: 95.13% completed...
2017-06-19 22:17:58: 100.00% completed.
2017-06-19 22:17:58: End of calculation.
2017-06-19 22:17:58: Total calculation time: 76249 ms.
done
computing RF ...
done
All done!
