computing MSdone
computing MS ...
TreeCmp version 1.0-b291

Active options:
Type of the analysis:  one-to-all comparison mode (-r)
Metrics:
  1. MatchingSplit (ms)
Input file: ../gene_trees/randprune/is.poly.gt.randprune.0.090.trees
Output file: ../results/is.poly.randprune.0.090.MS.dat
Additional options:
P - Prune compared trees if needed (trees can have different leaf sets).
-----
2017-06-19 22:54:25: Start of scanning input file: ../gene_trees/randprune/is.poly.gt.randprune.0.090.trees
2017-06-19 22:54:36: End of scanning input file: ../gene_trees/randprune/is.poly.gt.randprune.0.090.trees
2017-06-19 22:54:36: 1478 valid trees found in file: ../gene_trees/randprune/is.poly.gt.randprune.0.090.trees
2017-06-19 22:54:36: Start of calculation...please wait...
2017-06-19 22:54:36: 0.00% completed...
2017-06-19 22:54:40: 5.01% completed...
2017-06-19 22:54:43: 10.01% completed...
2017-06-19 22:54:45: 15.02% completed...
2017-06-19 22:54:48: 20.03% completed...
2017-06-19 22:54:50: 25.03% completed...
2017-06-19 22:54:52: 30.04% completed...
2017-06-19 22:54:54: 35.05% completed...
2017-06-19 22:54:56: 40.05% completed...
2017-06-19 22:54:58: 45.06% completed...
2017-06-19 22:55:01: 50.07% completed...
2017-06-19 22:55:03: 55.07% completed...
2017-06-19 22:55:05: 60.08% completed...
2017-06-19 22:55:07: 65.09% completed...
2017-06-19 22:55:10: 70.09% completed...
2017-06-19 22:55:12: 75.10% completed...
2017-06-19 22:55:14: 80.11% completed...
2017-06-19 22:55:17: 85.12% completed...
2017-06-19 22:55:19: 90.12% completed...
2017-06-19 22:55:21: 95.13% completed...
2017-06-19 22:55:23: 100.00% completed.
2017-06-19 22:55:23: End of calculation.
2017-06-19 22:55:23: Total calculation time: 47101 ms.
done
computing RF ...
done
All done!
0:07: End of calculation.
2017-06-19 22:50:07: Total calculation time: 43549 ms.
2017-06-19 22:50:07: 100.00% completed.
2017-06-19 22:50:07: End of calculation.
2017-06-19 22:50:07: Total calculation time: 43627 ms.
2017-06-19 22:50:07: 100.00% completed.
2017-06-19 22:50:07: End of calculation.
2017-06-19 22:50:07: Total calculation time: 43648 ms.
2017-06-19 22:50:07: 100.00% completed.
2017-06-19 22:50:07: End of calculation.
2017-06-19 22:50:07: Total calculation time: 43649 ms.
2017-06-19 22:50:07: 100.00% completed.
2017-06-19 22:50:07: End of calculation.
2017-06-19 22:50:07: Total calculation time: 43653 ms.
2017-06-19 22:50:07: 100.00% completed.
2017-06-19 22:50:07: End of calculation.
2017-06-19 22:50:07: Total calculation time: 43751 ms.
2017-06-19 22:50:07: 100.00% completed.
2017-06-19 22:50:07: End of calculation.
2017-06-19 22:50:07: Total calculation time: 43836 ms.
2017-06-19 22:50:07: 100.00% completed.
2017-06-19 22:50:07: End of calculation.
2017-06-19 22:50:07: Total calculation time: 43895 ms.
2017-06-19 22:50:07: 100.00% completed.
2017-06-19 22:50:07: End of calculation.
2017-06-19 22:50:07: Total calculation time: 43905 ms.
2017-06-19 22:50:07: 100.00% completed.
2017-06-19 22:50:07: End of calculation.
2017-06-19 22:50:07: Total calculation time: 43917 ms.
2017-06-19 22:50:07: 100.00% completed.
2017-06-19 22:50:07: End of calculation.
2017-06-19 22:50:07: Total calculation time: 44063 ms.
2017-06-19 22:50:07: 100.00% completed.
2017-06-19 22:50:07: End of calculation.
2017-06-19 22:50:07: Total calculation time: 44103 ms.
2017-06-19 22:50:07: 100.00% completed.
2017-06-19 22:50:08: End of calculation.
2017-06-19 22:50:08: Total calculation time: 44107 ms.
2017-06-19 22:50:08: 100.00% completed.
2017-06-19 22:50:08: End of calculation.
2017-06-19 22:50:08: Total calculation time: 44210 ms.
2017-06-19 22:50:08: 100.00% completed.
2017-06-19 22:50:08: End of calculation.
2017-06-19 22:50:08: Total calculation time: 44213 ms.
2017-06-19 22:50:08: 100.00% completed.
2017-06-19 22:50:08: End of calculation.
2017-06-19 22:50:08: Total calculation time: 44268 ms.
2017-06-19 22:50:08: 100.00% completed.
2017-06-19 22:50:08: End of calculation.
2017-06-19 22:50:08: Total calculation time: 44272 ms.
2017-06-19 22:50:08: 100.00% completed.
2017-06-19 22:50:08: End of calculation.
2017-06-19 22:50:08: Total calculation time: 44329 ms.
2017-06-19 22:50:08: 100.00% completed.
2017-06-19 22:50:08: End of calculation.
2017-06-19 22:50:08: Total calculation time: 44347 ms.
2017-06-19 22:50:08: 100.00% completed.
2017-06-19 22:50:08: End of calculation.
2017-06-19 22:50:08: Total calculation time: 44352 ms.
2017-06-19 22:50:08: 100.00% completed.
2017-06-19 22:50:08: End of calculation.
2017-06-19 22:50:08: Total calculation time: 44423 ms.
2017-06-19 22:50:08: 100.00% completed.
2017-06-19 22:50:08: End of calculation.
2017-06-19 22:50:08: Total calculation time: 44426 ms.
2017-06-19 22:50:08: 100.00% completed.
2017-06-19 22:50:08: End of calculation.
2017-06-19 22:50:08: Total calculation time: 44496 ms.
2017-06-19 22:50:08: 100.00% completed.
2017-06-19 22:50:08: End of calculation.
2017-06-19 22:50:08: Total calculation time: 44500 ms.
2017-06-19 22:50:08: 100.00% completed.
2017-06-19 22:50:08: End of calculation.
2017-06-19 22:50:08: Total calculation time: 44564 ms.
2017-06-19 22:50:08: 100.00% completed.
2017-06-19 22:50:08: End of calculation.
2017-06-19 22:50:08: Total calculation time: 44567 ms.
2017-06-19 22:50:08: 100.00% completed.
2017-06-19 22:50:08: End of calculation.
2017-06-19 22:50:08: Total calculation time: 44718 ms.
2017-06-19 22:50:08: 100.00% completed.
2017-06-19 22:50:08: End of calculation.
2017-06-19 22:50:08: Total calculation time: 44728 ms.
2017-06-19 22:50:08: 100.00% completed.
2017-06-19 22:50:08: End of calculation.
2017-06-19 22:50:08: Total calculation time: 44795 ms.
2017-06-19 22:50:08: 100.00% completed.
2017-06-19 22:50:08: End of calculation.
2017-06-19 22:50:08: Total calculation time: 44855 ms.
2017-06-19 22:50:08: 100.00% completed.
2017-06-19 22:50:08: End of calculation.
2017-06-19 22:50:08: Total calculation time: 44858 ms.
2017-06-19 22:50:08: 100.00% completed.
2017-06-19 22:50:08: End of calculation.
2017-06-19 22:50:08: Total calculation time: 44957 ms.
2017-06-19 22:50:08: 100.00% completed.
2017-06-19 22:50:08: End of calculation.
2017-06-19 22:50:08: Total calculation time: 45046 ms.
2017-06-19 22:50:08: 100.00% completed.
2017-06-19 22:50:08: End of calculation.
2017-06-19 22:50:08: Total calculation time: 45150 ms.
2017-06-19 22:50:08: 100.00% completed.
2017-06-19 22:50:08: End of calculation.
2017-06-19 22:50:08: Total calculation time: 45160 ms.
2017-06-19 22:50:09: 100.00% completed.
2017-06-19 22:50:09: End of calculation.
2017-06-19 22:50:09: Total calculation time: 45235 ms.
2017-06-19 22:50:09: 100.00% completed.
2017-06-19 22:50:09: End of calculation.
2017-06-19 22:50:09: Total calculation time: 45291 ms.
2017-06-19 22:50:09: 100.00% completed.
2017-06-19 22:50:09: End of calculation.
2017-06-19 22:50:09: Total calculation time: 45347 ms.
2017-06-19 22:50:09: 100.00% completed.
2017-06-19 22:50:09: End of calculation.
2017-06-19 22:50:09: Total calculation time: 45400 ms.
2017-06-19 22:50:09: 100.00% completed.
2017-06-19 22:50:09: End of calculation.
2017-06-19 22:50:09: Total calculation time: 45458 ms.
2017-06-19 22:50:09: 100.00% completed.
2017-06-19 22:50:09: End of calculation.
2017-06-19 22:50:09: Total calculation time: 45461 ms.
2017-06-19 22:50:09: 100.00% completed.
2017-06-19 22:50:09: End of calculation.
2017-06-19 22:50:09: Total calculation time: 45513 ms.
2017-06-19 22:50:09: 100.00% completed.
2017-06-19 22:50:09: End of calculation.
2017-06-19 22:50:09: Total calculation time: 45535 ms.
2017-06-19 22:50:09: 100.00% completed.
2017-06-19 22:50:09: End of calculation.
2017-06-19 22:50:09: Total calculation time: 45537 ms.
2017-06-19 22:50:09: 100.00% completed.
2017-06-19 22:50:09: End of calculation.
2017-06-19 22:50:09: Total calculation time: 45578 ms.
2017-06-19 22:50:09: 100.00% completed.
2017-06-19 22:50:09: End of calculation.
2017-06-19 22:50:09: Total calculation time: 45579 ms.
2017-06-19 22:50:09: 100.00% completed.
2017-06-19 22:50:09: End of calculation.
2017-06-19 22:50:09: Total calculation time: 45637 ms.
2017-06-19 22:50:09: 100.00% completed.
2017-06-19 22:50:09: End of calculation.
2017-06-19 22:50:09: Total calculation time: 45639 ms.
2017-06-19 22:50:09: 100.00% completed.
2017-06-19 22:50:09: End of calculation.
2017-06-19 22:50:09: Total calculation time: 45684 ms.
2017-06-19 22:50:09: 100.00% completed.
2017-06-19 22:50:09: End of calculation.
2017-06-19 22:50:09: Total calculation time: 45707 ms.
2017-06-19 22:50:09: 100.00% completed.
2017-06-19 22:50:09: End of calculation.
2017-06-19 22:50:09: Total calculation time: 45756 ms.
2017-06-19 22:50:09: 100.00% completed.
2017-06-19 22:50:09: End of calculation.
2017-06-19 22:50:09: Total calculation time: 45760 ms.
2017-06-19 22:50:09: 100.00% completed.
2017-06-19 22:50:09: End of calculation.
2017-06-19 22:50:09: Total calculation time: 45811 ms.
2017-06-19 22:50:09: 100.00% completed.
2017-06-19 22:50:09: End of calculation.
2017-06-19 22:50:09: Total calculation time: 45816 ms.
2017-06-19 22:50:09: 100.00% completed.
2017-06-19 22:50:09: End of calculation.
2017-06-19 22:50:09: Total calculation time: 45903 ms.
2017-06-19 22:50:09: 100.00% completed.
2017-06-19 22:50:09: End of calculation.
2017-06-19 22:50:09: Total calculation time: 45911 ms.
2017-06-19 22:50:09: 100.00% completed.
2017-06-19 22:50:09: End of calculation.
2017-06-19 22:50:09: Total calculation time: 45994 ms.
2017-06-19 22:50:09: 100.00% completed.
2017-06-19 22:50:09: End of calculation.
2017-06-19 22:50:09: Total calculation time: 45999 ms.
2017-06-19 22:50:09: 100.00% completed.
2017-06-19 22:50:09: End of calculation.
2017-06-19 22:50:09: Total calculation time: 46150 ms.
2017-06-19 22:50:09: 100.00% completed.
2017-06-19 22:50:09: End of calculation.
2017-06-19 22:50:09: Total calculation time: 46155 ms.
2017-06-19 22:50:10: 100.00% completed.
2017-06-19 22:50:10: End of calculation.
2017-06-19 22:50:10: Total calculation time: 46258 ms.
2017-06-19 22:50:10: 100.00% completed.
2017-06-19 22:50:10: End of calculation.
2017-06-19 22:50:10: Total calculation time: 46261 ms.
2017-06-19 22:50:10: 100.00% completed.
2017-06-19 22:50:10: End of calculation.
2017-06-19 22:50:10: Total calculation time: 46344 ms.
2017-06-19 22:50:10: 100.00% completed.
2017-06-19 22:50:10: End of calculation.
2017-06-19 22:50:10: Total calculation time: 46408 ms.
2017-06-19 22:50:10: 100.00% completed.
2017-06-19 22:50:10: End of calculation.
2017-06-19 22:50:10: Total calculation time: 46409 ms.
2017-06-19 22:50:10: 100.00% completed.
2017-06-19 22:50:10: End of calculation.
2017-06-19 22:50:10: Total calculation time: 46412 ms.
2017-06-19 22:50:10: 100.00% completed.
2017-06-19 22:50:10: End of calculation.
2017-06-19 22:50:10: Total calculation time: 46517 ms.
2017-06-19 22:50:10: 100.00% completed.
2017-06-19 22:50:10: End of calculation.
2017-06-19 22:50:10: Total calculation time: 46563 ms.
2017-06-19 22:50:10: 100.00% completed.
2017-06-19 22:50:10: End of calculation.
2017-06-19 22:50:10: Total calculation time: 46568 ms.
done
computing RF ...
done
All done!
