computing MS ...
TreeCmp version 1.0-b291

Active options:
Type of the analysis:  one-to-all comparison mode (-r)
Metrics:
  1. MatchingSplit (ms)
Input file: ../gene_trees/LBF/is.poly.gt.LBF.0.120.trees
Output file: ../results/is.poly.0.120.MS.dat
Additional options:
P - Prune compared trees if needed (trees can have different leaf sets).
-----
2017-06-19 22:16:22: Start of scanning input file: ../gene_trees/LBF/is.poly.gt.LBF.0.120.trees
2017-06-19 22:16:41: End of scanning input file: ../gene_trees/LBF/is.poly.gt.LBF.0.120.trees
2017-06-19 22:16:41: 1478 valid trees found in file: ../gene_trees/LBF/is.poly.gt.LBF.0.120.trees
2017-06-19 22:16:41: Start of calculation...please wait...
2017-06-19 22:16:41: 0.00% completed...
2017-06-19 22:16:52: 5.01% completed...
2017-06-19 22:16:56: 10.01% completed...
2017-06-19 22:17:00: 15.02% completed...
2017-06-19 22:17:04: 20.03% completed...
2017-06-19 22:17:08: 25.03% completed...
2017-06-19 22:17:11: 30.04% completed...
2017-06-19 22:17:14: 35.05% completed...
2017-06-19 22:17:18: 40.05% completed...
2017-06-19 22:17:21: 45.06% completed...
2017-06-19 22:17:24: 50.07% completed...
2017-06-19 22:17:27: 55.07% completed...
2017-06-19 22:17:31: 60.08% completed...
2017-06-19 22:17:34: 65.09% completed...
2017-06-19 22:17:37: 70.09% completed...
2017-06-19 22:17:40: 75.10% completed...
2017-06-19 22:17:44: 80.11% completed...
2017-06-19 22:17:47: 85.12% completed...
2017-06-19 22:17:50: 90.12% completed...
2017-06-19 22:17:53: 95.13% completed...
2017-06-19 22:17:57: 100.00% completed.
2017-06-19 22:17:57: End of calculation.
2017-06-19 22:17:57: Total calculation time: 75334 ms.
done
computing RF ...
done
All done!
