computing MS ...
TreeCmp version 1.0-b291

Active options:
Type of the analysis:  one-to-all comparison mode (-r)
Metrics:
  1. MatchingSplit (ms)
Input file: ../gene_trees/LBF/is.poly.gt.LBF.0.065.trees
Output file: ../results/is.poly.0.065.MS.dat
Additional options:
P - Prune compared trees if needed (trees can have different leaf sets).
-----
2017-06-19 22:16:22: Start of scanning input file: ../gene_trees/LBF/is.poly.gt.LBF.0.065.trees
2017-06-19 22:16:43: End of scanning input file: ../gene_trees/LBF/is.poly.gt.LBF.0.065.trees
2017-06-19 22:16:43: 1478 valid trees found in file: ../gene_trees/LBF/is.poly.gt.LBF.0.065.trees
2017-06-19 22:16:43: Start of calculation...please wait...
2017-06-19 22:16:43: 0.00% completed...
2017-06-19 22:16:54: 5.01% completed...
2017-06-19 22:16:59: 10.01% completed...
2017-06-19 22:17:02: 15.02% completed...
2017-06-19 22:17:06: 20.03% completed...
2017-06-19 22:17:09: 25.03% completed...
2017-06-19 22:17:13: 30.04% completed...
2017-06-19 22:17:16: 35.05% completed...
2017-06-19 22:17:20: 40.05% completed...
2017-06-19 22:17:23: 45.06% completed...
2017-06-19 22:17:26: 50.07% completed...
2017-06-19 22:17:30: 55.07% completed...
2017-06-19 22:17:33: 60.08% completed...
2017-06-19 22:17:36: 65.09% completed...
2017-06-19 22:17:40: 70.09% completed...
2017-06-19 22:17:43: 75.10% completed...
2017-06-19 22:17:46: 80.11% completed...
2017-06-19 22:17:50: 85.12% completed...
2017-06-19 22:17:53: 90.12% completed...
2017-06-19 22:17:57: 95.13% completed...
2017-06-19 22:18:00: 100.00% completed.
2017-06-19 22:18:00: End of calculation.
2017-06-19 22:18:00: Total calculation time: 76462 ms.
done
computing RF ...
done
All done!
