computing MSdone
computing MS ...
TreeCmp version 1.0-b291

Active options:
Type of the analysis:  one-to-all comparison mode (-r)
Metrics:
  1. MatchingSplit (ms)
Input file: ../gene_trees/randprune/is.poly.gt.randprune.0.135.trees
Output file: ../results/is.poly.randprune.0.135.MS.dat
Additional options:
P - Prune compared trees if needed (trees can have different leaf sets).
-----
2017-06-19 22:56:21: Start of scanning input file: ../gene_trees/randprune/is.poly.gt.randprune.0.135.trees
2017-06-19 22:56:31: End of scanning input file: ../gene_trees/randprune/is.poly.gt.randprune.0.135.trees
2017-06-19 22:56:31: 1478 valid trees found in file: ../gene_trees/randprune/is.poly.gt.randprune.0.135.trees
2017-06-19 22:56:31: Start of calculation...please wait...
2017-06-19 22:56:31: 0.00% completed...
2017-06-19 22:56:35: 5.01% completed...
2017-06-19 22:56:37: 10.01% completed...
2017-06-19 22:56:39: 15.02% completed...
2017-06-19 22:56:41: 20.03% completed...
2017-06-19 22:56:43: 25.03% completed...
2017-06-19 22:56:45: 30.04% completed...
2017-06-19 22:56:47: 35.05% completed...
2017-06-19 22:56:49: 40.05% completed...
2017-06-19 22:56:51: 45.06% completed...
2017-06-19 22:56:53: 50.07% completed...
2017-06-19 22:56:55: 55.07% completed...
2017-06-19 22:56:57: 60.08% completed...
2017-06-19 22:56:58: 65.09% completed...
2017-06-19 22:57:00: 70.09% completed...
2017-06-19 22:57:02: 75.10% completed...
2017-06-19 22:57:04: 80.11% completed...
2017-06-19 22:57:06: 85.12% completed...
2017-06-19 22:57:08: 90.12% completed...
2017-06-19 22:57:10: 95.13% completed...
2017-06-19 22:57:12: 100.00% completed.
2017-06-19 22:57:12: End of calculation.
2017-06-19 22:57:12: Total calculation time: 41215 ms.
done
computing RF ...
done
All done!
9:21: End of calculation.
2017-06-19 22:49:21: Total calculation time: 33084 ms.
2017-06-19 22:49:21: 100.00% completed.
2017-06-19 22:49:21: End of calculation.
2017-06-19 22:49:21: Total calculation time: 33109 ms.
2017-06-19 22:49:21: 100.00% completed.
2017-06-19 22:49:21: End of calculation.
2017-06-19 22:49:21: Total calculation time: 33162 ms.
2017-06-19 22:49:21: 100.00% completed.
2017-06-19 22:49:21: End of calculation.
2017-06-19 22:49:21: Total calculation time: 33166 ms.
2017-06-19 22:49:21: 100.00% completed.
2017-06-19 22:49:21: End of calculation.
2017-06-19 22:49:21: Total calculation time: 33184 ms.
2017-06-19 22:49:21: 100.00% completed.
2017-06-19 22:49:21: End of calculation.
2017-06-19 22:49:21: Total calculation time: 33206 ms.
2017-06-19 22:49:21: 100.00% completed.
2017-06-19 22:49:21: End of calculation.
2017-06-19 22:49:21: Total calculation time: 33222 ms.
2017-06-19 22:49:21: 100.00% completed.
2017-06-19 22:49:21: End of calculation.
2017-06-19 22:49:21: Total calculation time: 33255 ms.
2017-06-19 22:49:21: 100.00% completed.
2017-06-19 22:49:21: End of calculation.
2017-06-19 22:49:21: Total calculation time: 33263 ms.
2017-06-19 22:49:21: 100.00% completed.
2017-06-19 22:49:21: End of calculation.
2017-06-19 22:49:21: Total calculation time: 33270 ms.
2017-06-19 22:49:22: 100.00% completed.
2017-06-19 22:49:22: End of calculation.
2017-06-19 22:49:22: Total calculation time: 33421 ms.
2017-06-19 22:49:22: 100.00% completed.
2017-06-19 22:49:22: End of calculation.
2017-06-19 22:49:22: Total calculation time: 33449 ms.
2017-06-19 22:49:22: 100.00% completed.
2017-06-19 22:49:22: End of calculation.
2017-06-19 22:49:22: Total calculation time: 33453 ms.
2017-06-19 22:49:22: 100.00% completed.
2017-06-19 22:49:22: End of calculation.
2017-06-19 22:49:22: Total calculation time: 33464 ms.
2017-06-19 22:49:22: 100.00% completed.
2017-06-19 22:49:22: End of calculation.
2017-06-19 22:49:22: Total calculation time: 33608 ms.
2017-06-19 22:49:22: 100.00% completed.
2017-06-19 22:49:22: End of calculation.
2017-06-19 22:49:22: Total calculation time: 33632 ms.
2017-06-19 22:49:22: 100.00% completed.
2017-06-19 22:49:22: End of calculation.
2017-06-19 22:49:22: Total calculation time: 33787 ms.
2017-06-19 22:49:22: 100.00% completed.
2017-06-19 22:49:22: End of calculation.
2017-06-19 22:49:22: Total calculation time: 33791 ms.
2017-06-19 22:49:22: 100.00% completed.
2017-06-19 22:49:22: End of calculation.
2017-06-19 22:49:22: Total calculation time: 33889 ms.
2017-06-19 22:49:22: 100.00% completed.
2017-06-19 22:49:22: End of calculation.
2017-06-19 22:49:22: Total calculation time: 33893 ms.
2017-06-19 22:49:22: 100.00% completed.
2017-06-19 22:49:22: End of calculation.
2017-06-19 22:49:22: Total calculation time: 33897 ms.
2017-06-19 22:49:22: 100.00% completed.
2017-06-19 22:49:22: End of calculation.
2017-06-19 22:49:22: Total calculation time: 34035 ms.
2017-06-19 22:49:22: 100.00% completed.
2017-06-19 22:49:22: End of calculation.
2017-06-19 22:49:22: Total calculation time: 34115 ms.
2017-06-19 22:49:22: 100.00% completed.
2017-06-19 22:49:22: End of calculation.
2017-06-19 22:49:22: Total calculation time: 34174 ms.
2017-06-19 22:49:22: 100.00% completed.
2017-06-19 22:49:22: End of calculation.
2017-06-19 22:49:22: Total calculation time: 34224 ms.
2017-06-19 22:49:22: 100.00% completed.
2017-06-19 22:49:22: End of calculation.
2017-06-19 22:49:22: Total calculation time: 34227 ms.
2017-06-19 22:49:22: 100.00% completed.
2017-06-19 22:49:22: End of calculation.
2017-06-19 22:49:22: Total calculation time: 34286 ms.
2017-06-19 22:49:22: 100.00% completed.
2017-06-19 22:49:22: End of calculation.
2017-06-19 22:49:22: Total calculation time: 34294 ms.
2017-06-19 22:49:23: 100.00% completed.
2017-06-19 22:49:23: End of calculation.
2017-06-19 22:49:23: Total calculation time: 34353 ms.
2017-06-19 22:49:23: 100.00% completed.
2017-06-19 22:49:23: End of calculation.
2017-06-19 22:49:23: Total calculation time: 34400 ms.
2017-06-19 22:49:23: 100.00% completed.
2017-06-19 22:49:23: End of calculation.
2017-06-19 22:49:23: Total calculation time: 34508 ms.
2017-06-19 22:49:23: 100.00% completed.
2017-06-19 22:49:23: End of calculation.
2017-06-19 22:49:23: Total calculation time: 34510 ms.
2017-06-19 22:49:23: 100.00% completed.
2017-06-19 22:49:23: End of calculation.
2017-06-19 22:49:23: Total calculation time: 34516 ms.
2017-06-19 22:49:23: 100.00% completed.
2017-06-19 22:49:23: End of calculation.
2017-06-19 22:49:23: Total calculation time: 34519 ms.
2017-06-19 22:49:23: 100.00% completed.
2017-06-19 22:49:23: End of calculation.
2017-06-19 22:49:23: Total calculation time: 34608 ms.
2017-06-19 22:49:23: 100.00% completed.
2017-06-19 22:49:23: End of calculation.
2017-06-19 22:49:23: Total calculation time: 34700 ms.
2017-06-19 22:49:23: 100.00% completed.
2017-06-19 22:49:23: End of calculation.
2017-06-19 22:49:23: Total calculation time: 34793 ms.
done
computing RF ...
done
All done!
