compute MS
TreeCmp version 1.0-b291

Active options:
Type of the analysis:  one-to-all comparison mode (-r)
Metrics:
  1. MatchingSplit (ms)
Input file: ../gene_trees/rooted_pruning/is.poly.gt.trees.3.56.trees
Output file: ../results/is.poly.trees.3.56.MS.dat
Additional options:
P - Prune compared trees if needed (trees can have different leaf sets).
-----
2017-06-19 22:14:42: Start of scanning input file: ../gene_trees/rooted_pruning/is.poly.gt.trees.3.56.trees
2017-06-19 22:14:57: End of scanning input file: ../gene_trees/rooted_pruning/is.poly.gt.trees.3.56.trees
2017-06-19 22:14:57: 1478 valid trees found in file: ../gene_trees/rooted_pruning/is.poly.gt.trees.3.56.trees
2017-06-19 22:14:57: Start of calculation...please wait...
2017-06-19 22:14:57: 0.00% completed...
2017-06-19 22:15:06: 5.01% completed...
2017-06-19 22:15:09: 10.01% completed...
2017-06-19 22:15:13: 15.02% completed...
2017-06-19 22:15:16: 20.03% completed...
2017-06-19 22:15:19: 25.03% completed...
2017-06-19 22:15:22: 30.04% completed...
2017-06-19 22:15:25: 35.05% completed...
2017-06-19 22:15:28: 40.05% completed...
2017-06-19 22:15:31: 45.06% completed...
2017-06-19 22:15:33: 50.07% completed...
2017-06-19 22:15:36: 55.07% completed...
2017-06-19 22:15:39: 60.08% completed...
2017-06-19 22:15:42: 65.09% completed...
2017-06-19 22:15:44: 70.09% completed...
2017-06-19 22:15:47: 75.10% completed...
2017-06-19 22:15:50: 80.11% completed...
2017-06-19 22:15:53: 85.12% completed...
2017-06-19 22:15:55: 90.12% completed...
2017-06-19 22:15:58: 95.13% completed...
2017-06-19 22:16:00: 100.00% completed.
2017-06-19 22:16:00: End of calculation.
2017-06-19 22:16:00: Total calculation time: 63568 ms.
compute RF
