compute MS
TreeCmp version 1.0-b291

Active options:
Type of the analysis:  one-to-all comparison mode (-r)
Metrics:
  1. MatchingSplit (ms)
Input file: ../gene_trees/rooted_pruning/is.poly.gt.trees.3.02.trees
Output file: ../results/is.poly.trees.3.02.MS.dat
Additional options:
P - Prune compared trees if needed (trees can have different leaf sets).
-----
2017-06-19 22:14:41: Start of scanning input file: ../gene_trees/rooted_pruning/is.poly.gt.trees.3.02.trees
2017-06-19 22:14:58: End of scanning input file: ../gene_trees/rooted_pruning/is.poly.gt.trees.3.02.trees
2017-06-19 22:14:58: 1478 valid trees found in file: ../gene_trees/rooted_pruning/is.poly.gt.trees.3.02.trees
2017-06-19 22:14:58: Start of calculation...please wait...
2017-06-19 22:14:58: 0.00% completed...
2017-06-19 22:15:07: 5.01% completed...
2017-06-19 22:15:11: 10.01% completed...
2017-06-19 22:15:15: 15.02% completed...
2017-06-19 22:15:18: 20.03% completed...
2017-06-19 22:15:21: 25.03% completed...
2017-06-19 22:15:24: 30.04% completed...
2017-06-19 22:15:27: 35.05% completed...
2017-06-19 22:15:29: 40.05% completed...
2017-06-19 22:15:32: 45.06% completed...
2017-06-19 22:15:35: 50.07% completed...
2017-06-19 22:15:38: 55.07% completed...
2017-06-19 22:15:41: 60.08% completed...
2017-06-19 22:15:43: 65.09% completed...
2017-06-19 22:15:46: 70.09% completed...
2017-06-19 22:15:49: 75.10% completed...
2017-06-19 22:15:51: 80.11% completed...
2017-06-19 22:15:54: 85.12% completed...
2017-06-19 22:15:57: 90.12% completed...
2017-06-19 22:15:59: 95.13% completed...
2017-06-19 22:16:02: 100.00% completed.
2017-06-19 22:16:02: End of calculation.
2017-06-19 22:16:02: Total calculation time: 63669 ms.
compute RF
