computing MSdone
computing MS ...
TreeCmp version 1.0-b291

Active options:
Type of the analysis:  one-to-all comparison mode (-r)
Metrics:
  1. MatchingSplit (ms)
Input file: ../gene_trees/randprune/is.poly.gt.randprune.0.140.trees
Output file: ../results/is.poly.randprune.0.140.MS.dat
Additional options:
P - Prune compared trees if needed (trees can have different leaf sets).
-----
2017-06-19 22:56:25: Start of scanning input file: ../gene_trees/randprune/is.poly.gt.randprune.0.140.trees
2017-06-19 22:56:35: End of scanning input file: ../gene_trees/randprune/is.poly.gt.randprune.0.140.trees
2017-06-19 22:56:35: 1478 valid trees found in file: ../gene_trees/randprune/is.poly.gt.randprune.0.140.trees
2017-06-19 22:56:35: Start of calculation...please wait...
2017-06-19 22:56:35: 0.00% completed...
2017-06-19 22:56:39: 5.01% completed...
2017-06-19 22:56:41: 10.01% completed...
2017-06-19 22:56:43: 15.02% completed...
2017-06-19 22:56:44: 20.03% completed...
2017-06-19 22:56:46: 25.03% completed...
2017-06-19 22:56:48: 30.04% completed...
2017-06-19 22:56:50: 35.05% completed...
2017-06-19 22:56:52: 40.05% completed...
2017-06-19 22:56:54: 45.06% completed...
2017-06-19 22:56:56: 50.07% completed...
2017-06-19 22:56:57: 55.07% completed...
2017-06-19 22:56:59: 60.08% completed...
2017-06-19 22:57:01: 65.09% completed...
2017-06-19 22:57:03: 70.09% completed...
2017-06-19 22:57:04: 75.10% completed...
2017-06-19 22:57:06: 80.11% completed...
2017-06-19 22:57:08: 85.12% completed...
2017-06-19 22:57:11: 90.12% completed...
2017-06-19 22:57:13: 95.13% completed...
2017-06-19 22:57:15: 100.00% completed.
2017-06-19 22:57:15: End of calculation.
2017-06-19 22:57:15: Total calculation time: 39951 ms.
done
computing RF ...
done
All done!
9:26: End of calculation.
2017-06-19 22:49:26: Total calculation time: 34371 ms.
2017-06-19 22:49:26: 100.00% completed.
2017-06-19 22:49:26: End of calculation.
2017-06-19 22:49:26: Total calculation time: 34374 ms.
2017-06-19 22:49:26: 100.00% completed.
2017-06-19 22:49:26: End of calculation.
2017-06-19 22:49:26: Total calculation time: 34377 ms.
2017-06-19 22:49:26: 100.00% completed.
2017-06-19 22:49:26: End of calculation.
2017-06-19 22:49:26: Total calculation time: 34461 ms.
2017-06-19 22:49:26: 100.00% completed.
2017-06-19 22:49:26: End of calculation.
2017-06-19 22:49:26: Total calculation time: 34465 ms.
2017-06-19 22:49:26: 100.00% completed.
2017-06-19 22:49:26: End of calculation.
2017-06-19 22:49:26: Total calculation time: 34584 ms.
2017-06-19 22:49:26: 100.00% completed.
2017-06-19 22:49:26: End of calculation.
2017-06-19 22:49:26: Total calculation time: 34700 ms.
2017-06-19 22:49:26: 100.00% completed.
2017-06-19 22:49:26: End of calculation.
2017-06-19 22:49:26: Total calculation time: 34703 ms.
2017-06-19 22:49:26: 100.00% completed.
2017-06-19 22:49:26: End of calculation.
2017-06-19 22:49:26: Total calculation time: 34712 ms.
2017-06-19 22:49:26: 100.00% completed.
2017-06-19 22:49:26: End of calculation.
2017-06-19 22:49:26: Total calculation time: 34794 ms.
2017-06-19 22:49:26: 100.00% completed.
2017-06-19 22:49:26: End of calculation.
2017-06-19 22:49:26: Total calculation time: 34881 ms.
2017-06-19 22:49:26: 100.00% completed.
2017-06-19 22:49:26: End of calculation.
2017-06-19 22:49:26: Total calculation time: 34885 ms.
2017-06-19 22:49:27: 100.00% completed.
2017-06-19 22:49:27: End of calculation.
2017-06-19 22:49:27: Total calculation time: 34975 ms.
2017-06-19 22:49:27: 100.00% completed.
2017-06-19 22:49:27: End of calculation.
2017-06-19 22:49:27: Total calculation time: 34986 ms.
2017-06-19 22:49:27: 100.00% completed.
2017-06-19 22:49:27: End of calculation.
2017-06-19 22:49:27: Total calculation time: 35117 ms.
2017-06-19 22:49:27: 100.00% completed.
2017-06-19 22:49:27: End of calculation.
2017-06-19 22:49:27: Total calculation time: 35120 ms.
2017-06-19 22:49:27: 100.00% completed.
2017-06-19 22:49:27: End of calculation.
2017-06-19 22:49:27: Total calculation time: 35123 ms.
2017-06-19 22:49:27: 100.00% completed.
2017-06-19 22:49:27: End of calculation.
2017-06-19 22:49:27: Total calculation time: 35224 ms.
2017-06-19 22:49:27: 100.00% completed.
2017-06-19 22:49:27: End of calculation.
2017-06-19 22:49:27: Total calculation time: 35227 ms.
2017-06-19 22:49:27: 100.00% completed.
2017-06-19 22:49:27: End of calculation.
2017-06-19 22:49:27: Total calculation time: 35317 ms.
2017-06-19 22:49:27: 100.00% completed.
2017-06-19 22:49:27: End of calculation.
2017-06-19 22:49:27: Total calculation time: 35320 ms.
2017-06-19 22:49:27: 100.00% completed.
2017-06-19 22:49:27: End of calculation.
2017-06-19 22:49:27: Total calculation time: 35322 ms.
2017-06-19 22:49:27: 100.00% completed.
2017-06-19 22:49:27: End of calculation.
2017-06-19 22:49:27: Total calculation time: 35407 ms.
2017-06-19 22:49:27: 100.00% completed.
2017-06-19 22:49:27: End of calculation.
2017-06-19 22:49:27: Total calculation time: 35483 ms.
2017-06-19 22:49:27: 100.00% completed.
2017-06-19 22:49:27: End of calculation.
2017-06-19 22:49:27: Total calculation time: 35530 ms.
2017-06-19 22:49:27: 100.00% completed.
2017-06-19 22:49:27: End of calculation.
2017-06-19 22:49:27: Total calculation time: 35573 ms.
2017-06-19 22:49:27: 100.00% completed.
2017-06-19 22:49:27: End of calculation.
2017-06-19 22:49:27: Total calculation time: 35580 ms.
2017-06-19 22:49:27: 100.00% completed.
2017-06-19 22:49:27: End of calculation.
2017-06-19 22:49:27: Total calculation time: 35659 ms.
2017-06-19 22:49:27: 100.00% completed.
2017-06-19 22:49:27: End of calculation.
2017-06-19 22:49:27: Total calculation time: 35714 ms.
2017-06-19 22:49:27: 100.00% completed.
2017-06-19 22:49:27: End of calculation.
2017-06-19 22:49:27: Total calculation time: 35715 ms.
2017-06-19 22:49:27: 100.00% completed.
2017-06-19 22:49:27: End of calculation.
2017-06-19 22:49:27: Total calculation time: 35762 ms.
2017-06-19 22:49:27: 100.00% completed.
2017-06-19 22:49:27: End of calculation.
2017-06-19 22:49:27: Total calculation time: 35766 ms.
2017-06-19 22:49:27: 100.00% completed.
2017-06-19 22:49:27: End of calculation.
2017-06-19 22:49:27: Total calculation time: 35846 ms.
2017-06-19 22:49:27: 100.00% completed.
2017-06-19 22:49:27: End of calculation.
2017-06-19 22:49:28: Total calculation time: 35848 ms.
2017-06-19 22:49:28: 100.00% completed.
2017-06-19 22:49:28: End of calculation.
2017-06-19 22:49:28: Total calculation time: 35935 ms.
2017-06-19 22:49:28: 100.00% completed.
2017-06-19 22:49:28: End of calculation.
2017-06-19 22:49:28: Total calculation time: 35989 ms.
2017-06-19 22:49:28: 100.00% completed.
2017-06-19 22:49:28: End of calculation.
2017-06-19 22:49:28: Total calculation time: 35992 ms.
done
computing RF ...
done
All done!
