compute MS
TreeCmp version 1.0-b291

Active options:
Type of the analysis:  one-to-all comparison mode (-r)
Metrics:
  1. MatchingSplit (ms)
Input file: ../gene_trees/rooted_pruning/is.poly.gt.trees.3.68.trees
Output file: ../results/is.poly.trees.3.68.MS.dat
Additional options:
P - Prune compared trees if needed (trees can have different leaf sets).
-----
2017-06-19 22:14:40: Start of scanning input file: ../gene_trees/rooted_pruning/is.poly.gt.trees.3.68.trees
2017-06-19 22:14:55: End of scanning input file: ../gene_trees/rooted_pruning/is.poly.gt.trees.3.68.trees
2017-06-19 22:14:55: 1478 valid trees found in file: ../gene_trees/rooted_pruning/is.poly.gt.trees.3.68.trees
2017-06-19 22:14:55: Start of calculation...please wait...
2017-06-19 22:14:55: 0.00% completed...
2017-06-19 22:15:04: 5.01% completed...
2017-06-19 22:15:08: 10.01% completed...
2017-06-19 22:15:11: 15.02% completed...
2017-06-19 22:15:15: 20.03% completed...
2017-06-19 22:15:19: 25.03% completed...
2017-06-19 22:15:22: 30.04% completed...
2017-06-19 22:15:24: 35.05% completed...
2017-06-19 22:15:27: 40.05% completed...
2017-06-19 22:15:29: 45.06% completed...
2017-06-19 22:15:32: 50.07% completed...
2017-06-19 22:15:35: 55.07% completed...
2017-06-19 22:15:38: 60.08% completed...
2017-06-19 22:15:40: 65.09% completed...
2017-06-19 22:15:43: 70.09% completed...
2017-06-19 22:15:46: 75.10% completed...
2017-06-19 22:15:48: 80.11% completed...
2017-06-19 22:15:51: 85.12% completed...
2017-06-19 22:15:54: 90.12% completed...
2017-06-19 22:15:57: 95.13% completed...
2017-06-19 22:15:59: 100.00% completed.
2017-06-19 22:15:59: End of calculation.
2017-06-19 22:15:59: Total calculation time: 64630 ms.
compute RF
