computing MS ...
TreeCmp version 1.0-b291

Active options:
Type of the analysis:  one-to-all comparison mode (-r)
Metrics:
  1. MatchingSplit (ms)
Input file: ../gene_trees/LBF/is.poly.gt.LBF.0.035.trees
Output file: ../results/is.poly.0.035.MS.dat
Additional options:
P - Prune compared trees if needed (trees can have different leaf sets).
-----
2017-06-19 22:16:22: Start of scanning input file: ../gene_trees/LBF/is.poly.gt.LBF.0.035.trees
2017-06-19 22:16:43: End of scanning input file: ../gene_trees/LBF/is.poly.gt.LBF.0.035.trees
2017-06-19 22:16:43: 1478 valid trees found in file: ../gene_trees/LBF/is.poly.gt.LBF.0.035.trees
2017-06-19 22:16:43: Start of calculation...please wait...
2017-06-19 22:16:43: 0.00% completed...
2017-06-19 22:16:54: 5.01% completed...
2017-06-19 22:16:59: 10.01% completed...
2017-06-19 22:17:03: 15.02% completed...
2017-06-19 22:17:07: 20.03% completed...
2017-06-19 22:17:11: 25.03% completed...
2017-06-19 22:17:14: 30.04% completed...
2017-06-19 22:17:18: 35.05% completed...
2017-06-19 22:17:22: 40.05% completed...
2017-06-19 22:17:25: 45.06% completed...
2017-06-19 22:17:29: 50.07% completed...
2017-06-19 22:17:33: 55.07% completed...
2017-06-19 22:17:36: 60.08% completed...
2017-06-19 22:17:39: 65.09% completed...
2017-06-19 22:17:43: 70.09% completed...
2017-06-19 22:17:47: 75.10% completed...
2017-06-19 22:17:50: 80.11% completed...
2017-06-19 22:17:54: 85.12% completed...
2017-06-19 22:17:57: 90.12% completed...
2017-06-19 22:18:01: 95.13% completed...
2017-06-19 22:18:04: 100.00% completed.
2017-06-19 22:18:04: End of calculation.
2017-06-19 22:18:04: Total calculation time: 81006 ms.
done
computing RF ...
done
All done!
