computing MSdone
computing MS ...
TreeCmp version 1.0-b291

Active options:
Type of the analysis:  one-to-all comparison mode (-r)
Metrics:
  1. MatchingSplit (ms)
Input file: ../gene_trees/randprune/is.poly.gt.randprune.0.145.trees
Output file: ../results/is.poly.randprune.0.145.MS.dat
Additional options:
P - Prune compared trees if needed (trees can have different leaf sets).
-----
2017-06-19 22:56:34: Start of scanning input file: ../gene_trees/randprune/is.poly.gt.randprune.0.145.trees
2017-06-19 22:56:44: End of scanning input file: ../gene_trees/randprune/is.poly.gt.randprune.0.145.trees
2017-06-19 22:56:44: 1478 valid trees found in file: ../gene_trees/randprune/is.poly.gt.randprune.0.145.trees
2017-06-19 22:56:44: Start of calculation...please wait...
2017-06-19 22:56:44: 0.00% completed...
2017-06-19 22:56:48: 5.01% completed...
2017-06-19 22:56:50: 10.01% completed...
2017-06-19 22:56:52: 15.02% completed...
2017-06-19 22:56:54: 20.03% completed...
2017-06-19 22:56:55: 25.03% completed...
2017-06-19 22:56:57: 30.04% completed...
2017-06-19 22:56:59: 35.05% completed...
2017-06-19 22:57:01: 40.05% completed...
2017-06-19 22:57:03: 45.06% completed...
2017-06-19 22:57:04: 50.07% completed...
2017-06-19 22:57:06: 55.07% completed...
2017-06-19 22:57:08: 60.08% completed...
2017-06-19 22:57:10: 65.09% completed...
2017-06-19 22:57:12: 70.09% completed...
2017-06-19 22:57:14: 75.10% completed...
2017-06-19 22:57:16: 80.11% completed...
2017-06-19 22:57:18: 85.12% completed...
2017-06-19 22:57:20: 90.12% completed...
2017-06-19 22:57:21: 95.13% completed...
2017-06-19 22:57:23: 100.00% completed.
2017-06-19 22:57:23: End of calculation.
2017-06-19 22:57:23: Total calculation time: 38703 ms.
done
computing RF ...
done
All done!
9:14: End of calculation.
2017-06-19 22:49:14: Total calculation time: 35336 ms.
2017-06-19 22:49:14: 100.00% completed.
2017-06-19 22:49:14: End of calculation.
2017-06-19 22:49:14: Total calculation time: 35339 ms.
2017-06-19 22:49:14: 100.00% completed.
2017-06-19 22:49:14: End of calculation.
2017-06-19 22:49:14: Total calculation time: 35468 ms.
2017-06-19 22:49:14: 100.00% completed.
2017-06-19 22:49:14: End of calculation.
2017-06-19 22:49:14: Total calculation time: 35546 ms.
2017-06-19 22:49:15: 100.00% completed.
2017-06-19 22:49:15: End of calculation.
2017-06-19 22:49:15: Total calculation time: 35634 ms.
2017-06-19 22:49:15: 100.00% completed.
2017-06-19 22:49:15: End of calculation.
2017-06-19 22:49:15: Total calculation time: 35640 ms.
2017-06-19 22:49:15: 100.00% completed.
2017-06-19 22:49:15: End of calculation.
2017-06-19 22:49:15: Total calculation time: 35654 ms.
2017-06-19 22:49:15: 100.00% completed.
2017-06-19 22:49:15: End of calculation.
2017-06-19 22:49:15: Total calculation time: 35779 ms.
2017-06-19 22:49:15: 100.00% completed.
2017-06-19 22:49:15: End of calculation.
2017-06-19 22:49:15: Total calculation time: 35790 ms.
2017-06-19 22:49:15: 100.00% completed.
2017-06-19 22:49:15: End of calculation.
2017-06-19 22:49:15: Total calculation time: 35793 ms.
2017-06-19 22:49:15: 100.00% completed.
2017-06-19 22:49:15: End of calculation.
2017-06-19 22:49:15: Total calculation time: 35877 ms.
2017-06-19 22:49:15: 100.00% completed.
2017-06-19 22:49:15: End of calculation.
2017-06-19 22:49:15: Total calculation time: 35957 ms.
2017-06-19 22:49:15: 100.00% completed.
2017-06-19 22:49:15: End of calculation.
2017-06-19 22:49:15: Total calculation time: 35961 ms.
2017-06-19 22:49:15: 100.00% completed.
2017-06-19 22:49:15: End of calculation.
2017-06-19 22:49:15: Total calculation time: 35974 ms.
2017-06-19 22:49:15: 100.00% completed.
2017-06-19 22:49:15: End of calculation.
2017-06-19 22:49:15: Total calculation time: 36099 ms.
2017-06-19 22:49:15: 100.00% completed.
2017-06-19 22:49:15: End of calculation.
2017-06-19 22:49:15: Total calculation time: 36163 ms.
2017-06-19 22:49:15: 100.00% completed.
2017-06-19 22:49:15: End of calculation.
2017-06-19 22:49:15: Total calculation time: 36168 ms.
2017-06-19 22:49:15: 100.00% completed.
2017-06-19 22:49:15: End of calculation.
2017-06-19 22:49:15: Total calculation time: 36260 ms.
2017-06-19 22:49:15: 100.00% completed.
2017-06-19 22:49:15: End of calculation.
2017-06-19 22:49:15: Total calculation time: 36319 ms.
2017-06-19 22:49:15: 100.00% completed.
2017-06-19 22:49:15: End of calculation.
2017-06-19 22:49:15: Total calculation time: 36324 ms.
2017-06-19 22:49:15: 100.00% completed.
2017-06-19 22:49:15: End of calculation.
2017-06-19 22:49:15: Total calculation time: 36428 ms.
2017-06-19 22:49:15: 100.00% completed.
2017-06-19 22:49:15: End of calculation.
2017-06-19 22:49:15: Total calculation time: 36431 ms.
2017-06-19 22:49:15: 100.00% completed.
2017-06-19 22:49:15: End of calculation.
2017-06-19 22:49:15: Total calculation time: 36565 ms.
2017-06-19 22:49:15: 100.00% completed.
2017-06-19 22:49:16: End of calculation.
2017-06-19 22:49:16: Total calculation time: 36568 ms.
2017-06-19 22:49:16: 100.00% completed.
2017-06-19 22:49:16: End of calculation.
2017-06-19 22:49:16: Total calculation time: 36664 ms.
2017-06-19 22:49:16: 100.00% completed.
2017-06-19 22:49:16: End of calculation.
2017-06-19 22:49:16: Total calculation time: 36731 ms.
2017-06-19 22:49:16: 100.00% completed.
2017-06-19 22:49:16: End of calculation.
2017-06-19 22:49:16: Total calculation time: 36735 ms.
2017-06-19 22:49:16: 100.00% completed.
2017-06-19 22:49:16: End of calculation.
2017-06-19 22:49:16: Total calculation time: 36819 ms.
2017-06-19 22:49:16: 100.00% completed.
2017-06-19 22:49:16: End of calculation.
2017-06-19 22:49:16: Total calculation time: 36823 ms.
2017-06-19 22:49:16: 100.00% completed.
2017-06-19 22:49:16: End of calculation.
2017-06-19 22:49:16: Total calculation time: 36929 ms.
2017-06-19 22:49:16: 100.00% completed.
2017-06-19 22:49:16: End of calculation.
2017-06-19 22:49:16: Total calculation time: 36932 ms.
2017-06-19 22:49:16: 100.00% completed.
2017-06-19 22:49:16: End of calculation.
2017-06-19 22:49:16: Total calculation time: 36993 ms.
2017-06-19 22:49:16: 100.00% completed.
2017-06-19 22:49:16: End of calculation.
2017-06-19 22:49:16: Total calculation time: 37000 ms.
2017-06-19 22:49:16: 100.00% completed.
2017-06-19 22:49:16: End of calculation.
2017-06-19 22:49:16: Total calculation time: 37061 ms.
2017-06-19 22:49:16: 100.00% completed.
2017-06-19 22:49:16: End of calculation.
2017-06-19 22:49:16: Total calculation time: 37071 ms.
2017-06-19 22:49:16: 100.00% completed.
2017-06-19 22:49:16: End of calculation.
2017-06-19 22:49:16: Total calculation time: 37164 ms.
2017-06-19 22:49:16: 100.00% completed.
2017-06-19 22:49:16: End of calculation.
2017-06-19 22:49:16: Total calculation time: 37167 ms.
2017-06-19 22:49:16: 100.00% completed.
2017-06-19 22:49:16: End of calculation.
2017-06-19 22:49:16: Total calculation time: 37246 ms.
2017-06-19 22:49:16: 100.00% completed.
2017-06-19 22:49:16: End of calculation.
2017-06-19 22:49:16: Total calculation time: 37251 ms.
2017-06-19 22:49:16: 100.00% completed.
2017-06-19 22:49:16: End of calculation.
2017-06-19 22:49:16: Total calculation time: 37254 ms.
2017-06-19 22:49:16: 100.00% completed.
2017-06-19 22:49:16: End of calculation.
2017-06-19 22:49:16: Total calculation time: 37333 ms.
2017-06-19 22:49:16: 100.00% completed.
2017-06-19 22:49:16: End of calculation.
2017-06-19 22:49:16: Total calculation time: 37335 ms.
2017-06-19 22:49:16: 100.00% completed.
2017-06-19 22:49:16: End of calculation.
2017-06-19 22:49:16: Total calculation time: 37369 ms.
done
computing RF ...
done
All done!
