computing MS ...
TreeCmp version 1.0-b291

Active options:
Type of the analysis:  one-to-all comparison mode (-r)
Metrics:
  1. MatchingSplit (ms)
Input file: ../gene_trees/LBF/is.poly.gt.LBF.0.105.trees
Output file: ../results/is.poly.0.105.MS.dat
Additional options:
P - Prune compared trees if needed (trees can have different leaf sets).
-----
2017-06-19 22:16:22: Start of scanning input file: ../gene_trees/LBF/is.poly.gt.LBF.0.105.trees
2017-06-19 22:16:39: End of scanning input file: ../gene_trees/LBF/is.poly.gt.LBF.0.105.trees
2017-06-19 22:16:39: 1478 valid trees found in file: ../gene_trees/LBF/is.poly.gt.LBF.0.105.trees
2017-06-19 22:16:39: Start of calculation...please wait...
2017-06-19 22:16:39: 0.00% completed...
2017-06-19 22:16:46: 5.01% completed...
2017-06-19 22:16:52: 10.01% completed...
2017-06-19 22:16:56: 15.02% completed...
2017-06-19 22:16:59: 20.03% completed...
2017-06-19 22:17:03: 25.03% completed...
2017-06-19 22:17:07: 30.04% completed...
2017-06-19 22:17:09: 35.05% completed...
2017-06-19 22:17:13: 40.05% completed...
2017-06-19 22:17:16: 45.06% completed...
2017-06-19 22:17:18: 50.07% completed...
2017-06-19 22:17:21: 55.07% completed...
2017-06-19 22:17:24: 60.08% completed...
2017-06-19 22:17:27: 65.09% completed...
2017-06-19 22:17:30: 70.09% completed...
2017-06-19 22:17:33: 75.10% completed...
2017-06-19 22:17:36: 80.11% completed...
2017-06-19 22:17:40: 85.12% completed...
2017-06-19 22:17:43: 90.12% completed...
2017-06-19 22:17:46: 95.13% completed...
2017-06-19 22:17:49: 100.00% completed.
2017-06-19 22:17:49: End of calculation.
2017-06-19 22:17:49: Total calculation time: 70375 ms.
done
computing RF ...
done
All done!
