computing MSdone
computing MS ...
TreeCmp version 1.0-b291

Active options:
Type of the analysis:  one-to-all comparison mode (-r)
Metrics:
  1. MatchingSplit (ms)
Input file: ../gene_trees/randprune/is.poly.gt.randprune.0.050.trees
Output file: ../results/is.poly.randprune.0.050.MS.dat
Additional options:
P - Prune compared trees if needed (trees can have different leaf sets).
-----
2017-06-19 22:51:25: Start of scanning input file: ../gene_trees/randprune/is.poly.gt.randprune.0.050.trees
2017-06-19 22:51:36: End of scanning input file: ../gene_trees/randprune/is.poly.gt.randprune.0.050.trees
2017-06-19 22:51:36: 1478 valid trees found in file: ../gene_trees/randprune/is.poly.gt.randprune.0.050.trees
2017-06-19 22:51:36: Start of calculation...please wait...
2017-06-19 22:51:36: 0.00% completed...
2017-06-19 22:51:41: 5.01% completed...
2017-06-19 22:51:43: 10.01% completed...
2017-06-19 22:51:45: 15.02% completed...
2017-06-19 22:51:48: 20.03% completed...
2017-06-19 22:51:50: 25.03% completed...
2017-06-19 22:51:52: 30.04% completed...
2017-06-19 22:51:54: 35.05% completed...
2017-06-19 22:51:56: 40.05% completed...
2017-06-19 22:51:58: 45.06% completed...
2017-06-19 22:52:00: 50.07% completed...
2017-06-19 22:52:03: 55.07% completed...
2017-06-19 22:52:05: 60.08% completed...
2017-06-19 22:52:07: 65.09% completed...
2017-06-19 22:52:09: 70.09% completed...
2017-06-19 22:52:11: 75.10% completed...
2017-06-19 22:52:14: 80.11% completed...
2017-06-19 22:52:16: 85.12% completed...
2017-06-19 22:52:18: 90.12% completed...
2017-06-19 22:52:21: 95.13% completed...
2017-06-19 22:52:22: 100.00% completed.
2017-06-19 22:52:22: End of calculation.
2017-06-19 22:52:22: Total calculation time: 46080 ms.
done
computing RF ...
done
All done!
50:27: End of calculation.
2017-06-19 22:50:27: Total calculation time: 55179 ms.
2017-06-19 22:50:27: 100.00% completed.
2017-06-19 22:50:27: End of calculation.
2017-06-19 22:50:27: Total calculation time: 55183 ms.
2017-06-19 22:50:27: 100.00% completed.
2017-06-19 22:50:27: End of calculation.
2017-06-19 22:50:27: Total calculation time: 55267 ms.
2017-06-19 22:50:27: 100.00% completed.
2017-06-19 22:50:27: End of calculation.
2017-06-19 22:50:27: Total calculation time: 55271 ms.
2017-06-19 22:50:27: 100.00% completed.
2017-06-19 22:50:27: End of calculation.
2017-06-19 22:50:27: Total calculation time: 55323 ms.
2017-06-19 22:50:27: 100.00% completed.
2017-06-19 22:50:27: End of calculation.
2017-06-19 22:50:27: Total calculation time: 55327 ms.
2017-06-19 22:50:27: 100.00% completed.
2017-06-19 22:50:27: End of calculation.
2017-06-19 22:50:27: Total calculation time: 55341 ms.
2017-06-19 22:50:27: 100.00% completed.
2017-06-19 22:50:27: End of calculation.
2017-06-19 22:50:27: Total calculation time: 55413 ms.
2017-06-19 22:50:27: 100.00% completed.
2017-06-19 22:50:27: End of calculation.
2017-06-19 22:50:27: Total calculation time: 55424 ms.
2017-06-19 22:50:27: 100.00% completed.
2017-06-19 22:50:27: End of calculation.
2017-06-19 22:50:27: Total calculation time: 55495 ms.
2017-06-19 22:50:27: 100.00% completed.
2017-06-19 22:50:27: End of calculation.
2017-06-19 22:50:27: Total calculation time: 55498 ms.
2017-06-19 22:50:27: 100.00% completed.
2017-06-19 22:50:27: End of calculation.
2017-06-19 22:50:27: Total calculation time: 55503 ms.
2017-06-19 22:50:27: 100.00% completed.
2017-06-19 22:50:27: End of calculation.
2017-06-19 22:50:27: Total calculation time: 55556 ms.
2017-06-19 22:50:27: 100.00% completed.
2017-06-19 22:50:27: End of calculation.
2017-06-19 22:50:27: Total calculation time: 55602 ms.
2017-06-19 22:50:27: 100.00% completed.
2017-06-19 22:50:27: End of calculation.
2017-06-19 22:50:27: Total calculation time: 55651 ms.
2017-06-19 22:50:27: 100.00% completed.
2017-06-19 22:50:27: End of calculation.
2017-06-19 22:50:27: Total calculation time: 55654 ms.
2017-06-19 22:50:27: 100.00% completed.
2017-06-19 22:50:27: End of calculation.
2017-06-19 22:50:27: Total calculation time: 55657 ms.
2017-06-19 22:50:27: 100.00% completed.
2017-06-19 22:50:27: End of calculation.
2017-06-19 22:50:27: Total calculation time: 55712 ms.
2017-06-19 22:50:27: 100.00% completed.
2017-06-19 22:50:27: End of calculation.
2017-06-19 22:50:27: Total calculation time: 55715 ms.
2017-06-19 22:50:27: 100.00% completed.
2017-06-19 22:50:27: End of calculation.
2017-06-19 22:50:27: Total calculation time: 55735 ms.
2017-06-19 22:50:27: 100.00% completed.
2017-06-19 22:50:27: End of calculation.
2017-06-19 22:50:27: Total calculation time: 55816 ms.
2017-06-19 22:50:27: 100.00% completed.
2017-06-19 22:50:27: End of calculation.
2017-06-19 22:50:27: Total calculation time: 55871 ms.
2017-06-19 22:50:27: 100.00% completed.
2017-06-19 22:50:27: End of calculation.
2017-06-19 22:50:27: Total calculation time: 55911 ms.
2017-06-19 22:50:27: 100.00% completed.
2017-06-19 22:50:27: End of calculation.
2017-06-19 22:50:27: Total calculation time: 55914 ms.
2017-06-19 22:50:27: 100.00% completed.
2017-06-19 22:50:27: End of calculation.
2017-06-19 22:50:27: Total calculation time: 55917 ms.
2017-06-19 22:50:28: 100.00% completed.
2017-06-19 22:50:28: End of calculation.
2017-06-19 22:50:28: Total calculation time: 56010 ms.
2017-06-19 22:50:28: 100.00% completed.
2017-06-19 22:50:28: End of calculation.
2017-06-19 22:50:28: Total calculation time: 56077 ms.
2017-06-19 22:50:28: 100.00% completed.
2017-06-19 22:50:28: End of calculation.
2017-06-19 22:50:28: Total calculation time: 56088 ms.
2017-06-19 22:50:28: 100.00% completed.
2017-06-19 22:50:28: End of calculation.
2017-06-19 22:50:28: Total calculation time: 56154 ms.
2017-06-19 22:50:28: 100.00% completed.
2017-06-19 22:50:28: End of calculation.
2017-06-19 22:50:28: Total calculation time: 56163 ms.
2017-06-19 22:50:28: 100.00% completed.
2017-06-19 22:50:28: End of calculation.
2017-06-19 22:50:28: Total calculation time: 56166 ms.
2017-06-19 22:50:28: 100.00% completed.
2017-06-19 22:50:28: End of calculation.
2017-06-19 22:50:28: Total calculation time: 56254 ms.
2017-06-19 22:50:28: 100.00% completed.
2017-06-19 22:50:28: End of calculation.
2017-06-19 22:50:28: Total calculation time: 56260 ms.
2017-06-19 22:50:28: 100.00% completed.
2017-06-19 22:50:28: End of calculation.
2017-06-19 22:50:28: Total calculation time: 56310 ms.
2017-06-19 22:50:28: 100.00% completed.
2017-06-19 22:50:28: End of calculation.
2017-06-19 22:50:28: Total calculation time: 56322 ms.
2017-06-19 22:50:28: 100.00% completed.
2017-06-19 22:50:28: End of calculation.
2017-06-19 22:50:28: Total calculation time: 56402 ms.
2017-06-19 22:50:28: 100.00% completed.
2017-06-19 22:50:28: End of calculation.
2017-06-19 22:50:28: Total calculation time: 56406 ms.
2017-06-19 22:50:28: 100.00% completed.
2017-06-19 22:50:28: End of calculation.
2017-06-19 22:50:28: Total calculation time: 56464 ms.
2017-06-19 22:50:28: 100.00% completed.
2017-06-19 22:50:28: End of calculation.
2017-06-19 22:50:28: Total calculation time: 56470 ms.
2017-06-19 22:50:28: 100.00% completed.
2017-06-19 22:50:28: End of calculation.
2017-06-19 22:50:28: Total calculation time: 56525 ms.
2017-06-19 22:50:28: 100.00% completed.
2017-06-19 22:50:28: End of calculation.
2017-06-19 22:50:28: Total calculation time: 56580 ms.
2017-06-19 22:50:28: 100.00% completed.
2017-06-19 22:50:28: End of calculation.
2017-06-19 22:50:28: Total calculation time: 56584 ms.
2017-06-19 22:50:28: 100.00% completed.
2017-06-19 22:50:28: End of calculation.
2017-06-19 22:50:28: Total calculation time: 56657 ms.
2017-06-19 22:50:28: 100.00% completed.
2017-06-19 22:50:28: End of calculation.
2017-06-19 22:50:28: Total calculation time: 56660 ms.
2017-06-19 22:50:28: 100.00% completed.
2017-06-19 22:50:28: End of calculation.
2017-06-19 22:50:28: Total calculation time: 56721 ms.
2017-06-19 22:50:28: 100.00% completed.
2017-06-19 22:50:28: End of calculation.
2017-06-19 22:50:28: Total calculation time: 56741 ms.
2017-06-19 22:50:28: 100.00% completed.
2017-06-19 22:50:28: End of calculation.
2017-06-19 22:50:28: Total calculation time: 56797 ms.
2017-06-19 22:50:28: 100.00% completed.
2017-06-19 22:50:28: End of calculation.
2017-06-19 22:50:28: Total calculation time: 56816 ms.
2017-06-19 22:50:28: 100.00% completed.
2017-06-19 22:50:28: End of calculation.
2017-06-19 22:50:28: Total calculation time: 56851 ms.
2017-06-19 22:50:28: 100.00% completed.
2017-06-19 22:50:28: End of calculation.
2017-06-19 22:50:28: Total calculation time: 56903 ms.
2017-06-19 22:50:28: 100.00% completed.
2017-06-19 22:50:28: End of calculation.
2017-06-19 22:50:28: Total calculation time: 56906 ms.
2017-06-19 22:50:28: 100.00% completed.
2017-06-19 22:50:28: End of calculation.
2017-06-19 22:50:28: Total calculation time: 56937 ms.
2017-06-19 22:50:28: 100.00% completed.
2017-06-19 22:50:28: End of calculation.
2017-06-19 22:50:28: Total calculation time: 56985 ms.
2017-06-19 22:50:28: 100.00% completed.
2017-06-19 22:50:28: End of calculation.
2017-06-19 22:50:28: Total calculation time: 56989 ms.
2017-06-19 22:50:29: 100.00% completed.
2017-06-19 22:50:29: End of calculation.
2017-06-19 22:50:29: Total calculation time: 57042 ms.
2017-06-19 22:50:29: 100.00% completed.
2017-06-19 22:50:29: End of calculation.
2017-06-19 22:50:29: Total calculation time: 57082 ms.
2017-06-19 22:50:29: 100.00% completed.
2017-06-19 22:50:29: End of calculation.
2017-06-19 22:50:29: Total calculation time: 57117 ms.
2017-06-19 22:50:29: 100.00% completed.
2017-06-19 22:50:29: End of calculation.
2017-06-19 22:50:29: Total calculation time: 57211 ms.
2017-06-19 22:50:29: 100.00% completed.
2017-06-19 22:50:29: End of calculation.
2017-06-19 22:50:29: Total calculation time: 57214 ms.
2017-06-19 22:50:29: 100.00% completed.
2017-06-19 22:50:29: End of calculation.
2017-06-19 22:50:29: Total calculation time: 57239 ms.
2017-06-19 22:50:29: 100.00% completed.
2017-06-19 22:50:29: End of calculation.
2017-06-19 22:50:29: Total calculation time: 57242 ms.
2017-06-19 22:50:29: 100.00% completed.
2017-06-19 22:50:29: End of calculation.
2017-06-19 22:50:29: Total calculation time: 57316 ms.
2017-06-19 22:50:29: 100.00% completed.
2017-06-19 22:50:29: End of calculation.
2017-06-19 22:50:29: Total calculation time: 57321 ms.
2017-06-19 22:50:29: 100.00% completed.
2017-06-19 22:50:29: End of calculation.
2017-06-19 22:50:29: Total calculation time: 57364 ms.
2017-06-19 22:50:29: 100.00% completed.
2017-06-19 22:50:29: End of calculation.
2017-06-19 22:50:29: Total calculation time: 57368 ms.
2017-06-19 22:50:29: 100.00% completed.
2017-06-19 22:50:29: End of calculation.
2017-06-19 22:50:29: Total calculation time: 57421 ms.
2017-06-19 22:50:29: 100.00% completed.
2017-06-19 22:50:29: End of calculation.
2017-06-19 22:50:29: Total calculation time: 57424 ms.
2017-06-19 22:50:29: 100.00% completed.
2017-06-19 22:50:29: End of calculation.
2017-06-19 22:50:29: Total calculation time: 57460 ms.
2017-06-19 22:50:29: 100.00% completed.
2017-06-19 22:50:29: End of calculation.
2017-06-19 22:50:29: Total calculation time: 57499 ms.
2017-06-19 22:50:29: 100.00% completed.
2017-06-19 22:50:29: End of calculation.
2017-06-19 22:50:29: Total calculation time: 57502 ms.
2017-06-19 22:50:29: 100.00% completed.
2017-06-19 22:50:29: End of calculation.
2017-06-19 22:50:29: Total calculation time: 57588 ms.
2017-06-19 22:50:29: 100.00% completed.
2017-06-19 22:50:29: End of calculation.
2017-06-19 22:50:29: Total calculation time: 57592 ms.
2017-06-19 22:50:29: 100.00% completed.
2017-06-19 22:50:29: End of calculation.
2017-06-19 22:50:29: Total calculation time: 57649 ms.
2017-06-19 22:50:29: 100.00% completed.
2017-06-19 22:50:29: End of calculation.
2017-06-19 22:50:29: Total calculation time: 57659 ms.
2017-06-19 22:50:29: 100.00% completed.
2017-06-19 22:50:29: End of calculation.
2017-06-19 22:50:29: Total calculation time: 57662 ms.
2017-06-19 22:50:29: 100.00% completed.
2017-06-19 22:50:29: End of calculation.
2017-06-19 22:50:29: Total calculation time: 57723 ms.
2017-06-19 22:50:29: 100.00% completed.
2017-06-19 22:50:29: End of calculation.
2017-06-19 22:50:29: Total calculation time: 57727 ms.
2017-06-19 22:50:29: 100.00% completed.
2017-06-19 22:50:29: End of calculation.
2017-06-19 22:50:29: Total calculation time: 57841 ms.
2017-06-19 22:50:29: 100.00% completed.
2017-06-19 22:50:29: End of calculation.
2017-06-19 22:50:29: Total calculation time: 57884 ms.
2017-06-19 22:50:29: 100.00% completed.
2017-06-19 22:50:29: End of calculation.
2017-06-19 22:50:29: Total calculation time: 57925 ms.
2017-06-19 22:50:29: 100.00% completed.
2017-06-19 22:50:29: End of calculation.
2017-06-19 22:50:29: Total calculation time: 57934 ms.
2017-06-19 22:50:29: 100.00% completed.
2017-06-19 22:50:29: End of calculation.
2017-06-19 22:50:29: Total calculation time: 57993 ms.
2017-06-19 22:50:30: 100.00% completed.
2017-06-19 22:50:30: End of calculation.
2017-06-19 22:50:30: Total calculation time: 58036 ms.
2017-06-19 22:50:30: 100.00% completed.
2017-06-19 22:50:30: End of calculation.
2017-06-19 22:50:30: Total calculation time: 58079 ms.
2017-06-19 22:50:30: 100.00% completed.
2017-06-19 22:50:30: End of calculation.
2017-06-19 22:50:30: Total calculation time: 58082 ms.
2017-06-19 22:50:30: 100.00% completed.
2017-06-19 22:50:30: End of calculation.
2017-06-19 22:50:30: Total calculation time: 58129 ms.
2017-06-19 22:50:30: 100.00% completed.
2017-06-19 22:50:30: End of calculation.
2017-06-19 22:50:30: Total calculation time: 58190 ms.
2017-06-19 22:50:30: 100.00% completed.
2017-06-19 22:50:30: End of calculation.
2017-06-19 22:50:30: Total calculation time: 58193 ms.
2017-06-19 22:50:30: 100.00% completed.
2017-06-19 22:50:30: End of calculation.
2017-06-19 22:50:30: Total calculation time: 58265 ms.
2017-06-19 22:50:30: 100.00% completed.
2017-06-19 22:50:30: End of calculation.
2017-06-19 22:50:30: Total calculation time: 58309 ms.
2017-06-19 22:50:30: 100.00% completed.
2017-06-19 22:50:30: End of calculation.
2017-06-19 22:50:30: Total calculation time: 58359 ms.
2017-06-19 22:50:30: 100.00% completed.
2017-06-19 22:50:30: End of calculation.
2017-06-19 22:50:30: Total calculation time: 58444 ms.
2017-06-19 22:50:30: 100.00% completed.
2017-06-19 22:50:30: End of calculation.
2017-06-19 22:50:30: Total calculation time: 58454 ms.
2017-06-19 22:50:30: 100.00% completed.
2017-06-19 22:50:30: End of calculation.
2017-06-19 22:50:30: Total calculation time: 58491 ms.
2017-06-19 22:50:30: 100.00% completed.
2017-06-19 22:50:30: End of calculation.
2017-06-19 22:50:30: Total calculation time: 58494 ms.
2017-06-19 22:50:30: 100.00% completed.
2017-06-19 22:50:30: End of calculation.
2017-06-19 22:50:30: Total calculation time: 58568 ms.
2017-06-19 22:50:30: 100.00% completed.
2017-06-19 22:50:30: End of calculation.
2017-06-19 22:50:30: Total calculation time: 58572 ms.
2017-06-19 22:50:30: 100.00% completed.
2017-06-19 22:50:30: End of calculation.
2017-06-19 22:50:30: Total calculation time: 58611 ms.
2017-06-19 22:50:30: 100.00% completed.
2017-06-19 22:50:30: End of calculation.
2017-06-19 22:50:30: Total calculation time: 58659 ms.
2017-06-19 22:50:30: 100.00% completed.
2017-06-19 22:50:30: End of calculation.
2017-06-19 22:50:30: Total calculation time: 58707 ms.
2017-06-19 22:50:30: 100.00% completed.
2017-06-19 22:50:30: End of calculation.
2017-06-19 22:50:30: Total calculation time: 58710 ms.
2017-06-19 22:50:30: 100.00% completed.
2017-06-19 22:50:30: End of calculation.
2017-06-19 22:50:30: Total calculation time: 58762 ms.
2017-06-19 22:50:30: 100.00% completed.
2017-06-19 22:50:30: End of calculation.
2017-06-19 22:50:30: Total calculation time: 58801 ms.
2017-06-19 22:50:30: 100.00% completed.
2017-06-19 22:50:30: End of calculation.
2017-06-19 22:50:30: Total calculation time: 58836 ms.
2017-06-19 22:50:30: 100.00% completed.
2017-06-19 22:50:30: End of calculation.
2017-06-19 22:50:30: Total calculation time: 58875 ms.
2017-06-19 22:50:30: 100.00% completed.
2017-06-19 22:50:30: End of calculation.
2017-06-19 22:50:30: Total calculation time: 58878 ms.
2017-06-19 22:50:30: 100.00% completed.
2017-06-19 22:50:30: End of calculation.
2017-06-19 22:50:30: Total calculation time: 58929 ms.
2017-06-19 22:50:30: 100.00% completed.
2017-06-19 22:50:30: End of calculation.
2017-06-19 22:50:30: Total calculation time: 58968 ms.
2017-06-19 22:50:31: 100.00% completed.
2017-06-19 22:50:31: End of calculation.
2017-06-19 22:50:31: Total calculation time: 59007 ms.
2017-06-19 22:50:31: 100.00% completed.
2017-06-19 22:50:31: End of calculation.
2017-06-19 22:50:31: Total calculation time: 59010 ms.
2017-06-19 22:50:31: 100.00% completed.
2017-06-19 22:50:31: End of calculation.
2017-06-19 22:50:31: Total calculation time: 59052 ms.
2017-06-19 22:50:31: 100.00% completed.
2017-06-19 22:50:31: End of calculation.
2017-06-19 22:50:31: Total calculation time: 59089 ms.
2017-06-19 22:50:31: 100.00% completed.
2017-06-19 22:50:31: End of calculation.
2017-06-19 22:50:31: Total calculation time: 59092 ms.
2017-06-19 22:50:31: 100.00% completed.
2017-06-19 22:50:31: End of calculation.
2017-06-19 22:50:31: Total calculation time: 59136 ms.
2017-06-19 22:50:31: 100.00% completed.
2017-06-19 22:50:31: End of calculation.
2017-06-19 22:50:31: Total calculation time: 59171 ms.
2017-06-19 22:50:31: 100.00% completed.
2017-06-19 22:50:31: End of calculation.
2017-06-19 22:50:31: Total calculation time: 59174 ms.
2017-06-19 22:50:31: 100.00% completed.
2017-06-19 22:50:31: End of calculation.
2017-06-19 22:50:31: Total calculation time: 59220 ms.
2017-06-19 22:50:31: 100.00% completed.
2017-06-19 22:50:31: End of calculation.
2017-06-19 22:50:31: Total calculation time: 59224 ms.
2017-06-19 22:50:31: 100.00% completed.
2017-06-19 22:50:31: End of calculation.
2017-06-19 22:50:31: Total calculation time: 59245 ms.
2017-06-19 22:50:31: 100.00% completed.
2017-06-19 22:50:31: End of calculation.
2017-06-19 22:50:31: Total calculation time: 59317 ms.
2017-06-19 22:50:31: 100.00% completed.
2017-06-19 22:50:31: End of calculation.
2017-06-19 22:50:31: Total calculation time: 59380 ms.
2017-06-19 22:50:31: 100.00% completed.
2017-06-19 22:50:31: End of calculation.
2017-06-19 22:50:31: Total calculation time: 59416 ms.
2017-06-19 22:50:31: 100.00% completed.
2017-06-19 22:50:31: End of calculation.
2017-06-19 22:50:31: Total calculation time: 59425 ms.
2017-06-19 22:50:31: 100.00% completed.
2017-06-19 22:50:31: End of calculation.
2017-06-19 22:50:31: Total calculation time: 59473 ms.
2017-06-19 22:50:31: 100.00% completed.
2017-06-19 22:50:31: End of calculation.
2017-06-19 22:50:31: Total calculation time: 59527 ms.
2017-06-19 22:50:31: 100.00% completed.
2017-06-19 22:50:31: End of calculation.
2017-06-19 22:50:31: Total calculation time: 59559 ms.
2017-06-19 22:50:31: 100.00% completed.
2017-06-19 22:50:31: End of calculation.
2017-06-19 22:50:31: Total calculation time: 59565 ms.
2017-06-19 22:50:31: 100.00% completed.
2017-06-19 22:50:31: End of calculation.
2017-06-19 22:50:31: Total calculation time: 59647 ms.
2017-06-19 22:50:31: 100.00% completed.
2017-06-19 22:50:31: End of calculation.
2017-06-19 22:50:31: Total calculation time: 59661 ms.
2017-06-19 22:50:31: 100.00% completed.
2017-06-19 22:50:31: End of calculation.
2017-06-19 22:50:31: Total calculation time: 59696 ms.
2017-06-19 22:50:31: 100.00% completed.
2017-06-19 22:50:31: End of calculation.
2017-06-19 22:50:31: Total calculation time: 59735 ms.
2017-06-19 22:50:31: 100.00% completed.
2017-06-19 22:50:31: End of calculation.
2017-06-19 22:50:31: Total calculation time: 59738 ms.
2017-06-19 22:50:31: 100.00% completed.
2017-06-19 22:50:31: End of calculation.
2017-06-19 22:50:31: Total calculation time: 59768 ms.
2017-06-19 22:50:31: 100.00% completed.
2017-06-19 22:50:31: End of calculation.
2017-06-19 22:50:31: Total calculation time: 59771 ms.
done
computing RF ...
done
All done!
