computing MSdone
computing MS ...
TreeCmp version 1.0-b291

Active options:
Type of the analysis:  one-to-all comparison mode (-r)
Metrics:
  1. MatchingSplit (ms)
Input file: ../gene_trees/randprune/is.poly.gt.randprune.0.070.trees
Output file: ../results/is.poly.randprune.0.070.MS.dat
Additional options:
P - Prune compared trees if needed (trees can have different leaf sets).
-----
2017-06-19 22:53:04: Start of scanning input file: ../gene_trees/randprune/is.poly.gt.randprune.0.070.trees
2017-06-19 22:53:16: End of scanning input file: ../gene_trees/randprune/is.poly.gt.randprune.0.070.trees
2017-06-19 22:53:16: 1478 valid trees found in file: ../gene_trees/randprune/is.poly.gt.randprune.0.070.trees
2017-06-19 22:53:16: Start of calculation...please wait...
2017-06-19 22:53:16: 0.00% completed...
2017-06-19 22:53:20: 5.01% completed...
2017-06-19 22:53:22: 10.01% completed...
2017-06-19 22:53:24: 15.02% completed...
2017-06-19 22:53:27: 20.03% completed...
2017-06-19 22:53:29: 25.03% completed...
2017-06-19 22:53:31: 30.04% completed...
2017-06-19 22:53:34: 35.05% completed...
2017-06-19 22:53:36: 40.05% completed...
2017-06-19 22:53:38: 45.06% completed...
2017-06-19 22:53:40: 50.07% completed...
2017-06-19 22:53:43: 55.07% completed...
2017-06-19 22:53:45: 60.08% completed...
2017-06-19 22:53:47: 65.09% completed...
2017-06-19 22:53:49: 70.09% completed...
2017-06-19 22:53:51: 75.10% completed...
2017-06-19 22:53:54: 80.11% completed...
2017-06-19 22:53:56: 85.12% completed...
2017-06-19 22:53:59: 90.12% completed...
2017-06-19 22:54:01: 95.13% completed...
2017-06-19 22:54:03: 100.00% completed.
2017-06-19 22:54:03: End of calculation.
2017-06-19 22:54:03: Total calculation time: 46940 ms.
done
computing RF ...
done
All done!
50:13: End of calculation.
2017-06-19 22:50:13: Total calculation time: 50801 ms.
2017-06-19 22:50:13: 100.00% completed.
2017-06-19 22:50:13: End of calculation.
2017-06-19 22:50:13: Total calculation time: 50804 ms.
2017-06-19 22:50:13: 100.00% completed.
2017-06-19 22:50:13: End of calculation.
2017-06-19 22:50:13: Total calculation time: 50938 ms.
2017-06-19 22:50:13: 100.00% completed.
2017-06-19 22:50:13: End of calculation.
2017-06-19 22:50:13: Total calculation time: 50941 ms.
2017-06-19 22:50:13: 100.00% completed.
2017-06-19 22:50:13: End of calculation.
2017-06-19 22:50:13: Total calculation time: 51017 ms.
2017-06-19 22:50:13: 100.00% completed.
2017-06-19 22:50:13: End of calculation.
2017-06-19 22:50:13: Total calculation time: 51080 ms.
2017-06-19 22:50:13: 100.00% completed.
2017-06-19 22:50:13: End of calculation.
2017-06-19 22:50:13: Total calculation time: 51094 ms.
2017-06-19 22:50:13: 100.00% completed.
2017-06-19 22:50:13: End of calculation.
2017-06-19 22:50:13: Total calculation time: 51097 ms.
2017-06-19 22:50:13: 100.00% completed.
2017-06-19 22:50:13: End of calculation.
2017-06-19 22:50:13: Total calculation time: 51248 ms.
2017-06-19 22:50:13: 100.00% completed.
2017-06-19 22:50:13: End of calculation.
2017-06-19 22:50:14: Total calculation time: 51252 ms.
2017-06-19 22:50:14: 100.00% completed.
2017-06-19 22:50:14: End of calculation.
2017-06-19 22:50:14: Total calculation time: 51360 ms.
2017-06-19 22:50:14: 100.00% completed.
2017-06-19 22:50:14: End of calculation.
2017-06-19 22:50:14: Total calculation time: 51365 ms.
2017-06-19 22:50:14: 100.00% completed.
2017-06-19 22:50:14: End of calculation.
2017-06-19 22:50:14: Total calculation time: 51453 ms.
2017-06-19 22:50:14: 100.00% completed.
2017-06-19 22:50:14: End of calculation.
2017-06-19 22:50:14: Total calculation time: 51496 ms.
2017-06-19 22:50:14: 100.00% completed.
2017-06-19 22:50:14: End of calculation.
2017-06-19 22:50:14: Total calculation time: 51571 ms.
2017-06-19 22:50:14: 100.00% completed.
2017-06-19 22:50:14: End of calculation.
2017-06-19 22:50:14: Total calculation time: 51576 ms.
2017-06-19 22:50:14: 100.00% completed.
2017-06-19 22:50:14: End of calculation.
2017-06-19 22:50:14: Total calculation time: 51678 ms.
2017-06-19 22:50:14: 100.00% completed.
2017-06-19 22:50:14: End of calculation.
2017-06-19 22:50:14: Total calculation time: 51682 ms.
2017-06-19 22:50:14: 100.00% completed.
2017-06-19 22:50:14: End of calculation.
2017-06-19 22:50:14: Total calculation time: 51774 ms.
2017-06-19 22:50:14: 100.00% completed.
2017-06-19 22:50:14: End of calculation.
2017-06-19 22:50:14: Total calculation time: 51780 ms.
2017-06-19 22:50:14: 100.00% completed.
2017-06-19 22:50:14: End of calculation.
2017-06-19 22:50:14: Total calculation time: 51861 ms.
2017-06-19 22:50:14: 100.00% completed.
2017-06-19 22:50:14: End of calculation.
2017-06-19 22:50:14: Total calculation time: 51909 ms.
2017-06-19 22:50:14: 100.00% completed.
2017-06-19 22:50:14: End of calculation.
2017-06-19 22:50:14: Total calculation time: 51957 ms.
2017-06-19 22:50:14: 100.00% completed.
2017-06-19 22:50:14: End of calculation.
2017-06-19 22:50:14: Total calculation time: 52019 ms.
2017-06-19 22:50:14: 100.00% completed.
2017-06-19 22:50:14: End of calculation.
2017-06-19 22:50:14: Total calculation time: 52058 ms.
2017-06-19 22:50:14: 100.00% completed.
2017-06-19 22:50:14: End of calculation.
2017-06-19 22:50:14: Total calculation time: 52111 ms.
2017-06-19 22:50:14: 100.00% completed.
2017-06-19 22:50:14: End of calculation.
2017-06-19 22:50:14: Total calculation time: 52113 ms.
2017-06-19 22:50:14: 100.00% completed.
2017-06-19 22:50:14: End of calculation.
2017-06-19 22:50:14: Total calculation time: 52123 ms.
2017-06-19 22:50:14: 100.00% completed.
2017-06-19 22:50:14: End of calculation.
2017-06-19 22:50:14: Total calculation time: 52211 ms.
2017-06-19 22:50:14: 100.00% completed.
2017-06-19 22:50:14: End of calculation.
2017-06-19 22:50:14: Total calculation time: 52215 ms.
2017-06-19 22:50:14: 100.00% completed.
2017-06-19 22:50:14: End of calculation.
2017-06-19 22:50:14: Total calculation time: 52275 ms.
2017-06-19 22:50:14: 100.00% completed.
2017-06-19 22:50:14: End of calculation.
2017-06-19 22:50:14: Total calculation time: 52288 ms.
2017-06-19 22:50:14: 100.00% completed.
2017-06-19 22:50:14: End of calculation.
2017-06-19 22:50:15: Total calculation time: 52294 ms.
2017-06-19 22:50:15: 100.00% completed.
2017-06-19 22:50:15: End of calculation.
2017-06-19 22:50:15: Total calculation time: 52386 ms.
2017-06-19 22:50:15: 100.00% completed.
2017-06-19 22:50:15: End of calculation.
2017-06-19 22:50:15: Total calculation time: 52442 ms.
2017-06-19 22:50:15: 100.00% completed.
2017-06-19 22:50:15: End of calculation.
2017-06-19 22:50:15: Total calculation time: 52468 ms.
2017-06-19 22:50:15: 100.00% completed.
2017-06-19 22:50:15: End of calculation.
2017-06-19 22:50:15: Total calculation time: 52471 ms.
2017-06-19 22:50:15: 100.00% completed.
2017-06-19 22:50:15: End of calculation.
2017-06-19 22:50:15: Total calculation time: 52475 ms.
2017-06-19 22:50:15: 100.00% completed.
2017-06-19 22:50:15: End of calculation.
2017-06-19 22:50:15: Total calculation time: 52531 ms.
2017-06-19 22:50:15: 100.00% completed.
2017-06-19 22:50:15: End of calculation.
2017-06-19 22:50:15: Total calculation time: 52618 ms.
2017-06-19 22:50:15: 100.00% completed.
2017-06-19 22:50:15: End of calculation.
2017-06-19 22:50:15: Total calculation time: 52678 ms.
2017-06-19 22:50:15: 100.00% completed.
2017-06-19 22:50:15: End of calculation.
2017-06-19 22:50:15: Total calculation time: 52681 ms.
2017-06-19 22:50:15: 100.00% completed.
2017-06-19 22:50:15: End of calculation.
2017-06-19 22:50:15: Total calculation time: 52727 ms.
2017-06-19 22:50:15: 100.00% completed.
2017-06-19 22:50:15: End of calculation.
2017-06-19 22:50:15: Total calculation time: 52783 ms.
2017-06-19 22:50:15: 100.00% completed.
2017-06-19 22:50:15: End of calculation.
2017-06-19 22:50:15: Total calculation time: 52851 ms.
2017-06-19 22:50:15: 100.00% completed.
2017-06-19 22:50:15: End of calculation.
2017-06-19 22:50:15: Total calculation time: 52905 ms.
2017-06-19 22:50:15: 100.00% completed.
2017-06-19 22:50:15: End of calculation.
2017-06-19 22:50:15: Total calculation time: 52909 ms.
2017-06-19 22:50:15: 100.00% completed.
2017-06-19 22:50:15: End of calculation.
2017-06-19 22:50:15: Total calculation time: 52948 ms.
2017-06-19 22:50:15: 100.00% completed.
2017-06-19 22:50:15: End of calculation.
2017-06-19 22:50:15: Total calculation time: 52957 ms.
2017-06-19 22:50:15: 100.00% completed.
2017-06-19 22:50:15: End of calculation.
2017-06-19 22:50:15: Total calculation time: 53015 ms.
2017-06-19 22:50:15: 100.00% completed.
2017-06-19 22:50:15: End of calculation.
2017-06-19 22:50:15: Total calculation time: 53018 ms.
2017-06-19 22:50:15: 100.00% completed.
2017-06-19 22:50:15: End of calculation.
2017-06-19 22:50:15: Total calculation time: 53105 ms.
2017-06-19 22:50:15: 100.00% completed.
2017-06-19 22:50:15: End of calculation.
2017-06-19 22:50:15: Total calculation time: 53127 ms.
2017-06-19 22:50:15: 100.00% completed.
2017-06-19 22:50:15: End of calculation.
2017-06-19 22:50:15: Total calculation time: 53131 ms.
2017-06-19 22:50:15: 100.00% completed.
2017-06-19 22:50:15: End of calculation.
2017-06-19 22:50:15: Total calculation time: 53243 ms.
2017-06-19 22:50:15: 100.00% completed.
2017-06-19 22:50:15: End of calculation.
2017-06-19 22:50:15: Total calculation time: 53265 ms.
2017-06-19 22:50:15: 100.00% completed.
2017-06-19 22:50:15: End of calculation.
2017-06-19 22:50:15: Total calculation time: 53269 ms.
2017-06-19 22:50:16: 100.00% completed.
2017-06-19 22:50:16: End of calculation.
2017-06-19 22:50:16: Total calculation time: 53343 ms.
2017-06-19 22:50:16: 100.00% completed.
2017-06-19 22:50:16: End of calculation.
2017-06-19 22:50:16: Total calculation time: 53413 ms.
2017-06-19 22:50:16: 100.00% completed.
2017-06-19 22:50:16: End of calculation.
2017-06-19 22:50:16: Total calculation time: 53417 ms.
2017-06-19 22:50:16: 100.00% completed.
2017-06-19 22:50:16: End of calculation.
2017-06-19 22:50:16: Total calculation time: 53481 ms.
2017-06-19 22:50:16: 100.00% completed.
2017-06-19 22:50:16: End of calculation.
2017-06-19 22:50:16: Total calculation time: 53484 ms.
2017-06-19 22:50:16: 100.00% completed.
2017-06-19 22:50:16: End of calculation.
2017-06-19 22:50:16: Total calculation time: 53560 ms.
2017-06-19 22:50:16: 100.00% completed.
2017-06-19 22:50:16: End of calculation.
2017-06-19 22:50:16: Total calculation time: 53614 ms.
2017-06-19 22:50:16: 100.00% completed.
2017-06-19 22:50:16: End of calculation.
2017-06-19 22:50:16: Total calculation time: 53616 ms.
2017-06-19 22:50:16: 100.00% completed.
2017-06-19 22:50:16: End of calculation.
2017-06-19 22:50:16: Total calculation time: 53670 ms.
2017-06-19 22:50:16: 100.00% completed.
2017-06-19 22:50:16: End of calculation.
2017-06-19 22:50:16: Total calculation time: 53674 ms.
2017-06-19 22:50:16: 100.00% completed.
2017-06-19 22:50:16: End of calculation.
2017-06-19 22:50:16: Total calculation time: 53677 ms.
2017-06-19 22:50:16: 100.00% completed.
2017-06-19 22:50:16: End of calculation.
2017-06-19 22:50:16: Total calculation time: 53792 ms.
2017-06-19 22:50:16: 100.00% completed.
2017-06-19 22:50:16: End of calculation.
2017-06-19 22:50:16: Total calculation time: 53835 ms.
2017-06-19 22:50:16: 100.00% completed.
2017-06-19 22:50:16: End of calculation.
2017-06-19 22:50:16: Total calculation time: 53843 ms.
2017-06-19 22:50:16: 100.00% completed.
2017-06-19 22:50:16: End of calculation.
2017-06-19 22:50:16: Total calculation time: 53959 ms.
2017-06-19 22:50:16: 100.00% completed.
2017-06-19 22:50:16: End of calculation.
2017-06-19 22:50:16: Total calculation time: 54010 ms.
2017-06-19 22:50:16: 100.00% completed.
2017-06-19 22:50:16: End of calculation.
2017-06-19 22:50:16: Total calculation time: 54027 ms.
2017-06-19 22:50:16: 100.00% completed.
2017-06-19 22:50:16: End of calculation.
2017-06-19 22:50:16: Total calculation time: 54092 ms.
2017-06-19 22:50:16: 100.00% completed.
2017-06-19 22:50:16: End of calculation.
2017-06-19 22:50:16: Total calculation time: 54095 ms.
2017-06-19 22:50:16: 100.00% completed.
2017-06-19 22:50:16: End of calculation.
2017-06-19 22:50:16: Total calculation time: 54099 ms.
2017-06-19 22:50:16: 100.00% completed.
2017-06-19 22:50:16: End of calculation.
2017-06-19 22:50:16: Total calculation time: 54219 ms.
2017-06-19 22:50:16: 100.00% completed.
2017-06-19 22:50:16: End of calculation.
2017-06-19 22:50:16: Total calculation time: 54267 ms.
2017-06-19 22:50:16: 100.00% completed.
2017-06-19 22:50:16: End of calculation.
2017-06-19 22:50:16: Total calculation time: 54271 ms.
2017-06-19 22:50:16: 100.00% completed.
2017-06-19 22:50:17: End of calculation.
2017-06-19 22:50:17: Total calculation time: 54323 ms.
2017-06-19 22:50:17: 100.00% completed.
2017-06-19 22:50:17: End of calculation.
2017-06-19 22:50:17: Total calculation time: 54329 ms.
2017-06-19 22:50:17: 100.00% completed.
2017-06-19 22:50:17: End of calculation.
2017-06-19 22:50:17: Total calculation time: 54332 ms.
2017-06-19 22:50:17: 100.00% completed.
2017-06-19 22:50:17: End of calculation.
2017-06-19 22:50:17: Total calculation time: 54443 ms.
2017-06-19 22:50:17: 100.00% completed.
2017-06-19 22:50:17: End of calculation.
2017-06-19 22:50:17: Total calculation time: 54449 ms.
2017-06-19 22:50:17: 100.00% completed.
2017-06-19 22:50:17: End of calculation.
2017-06-19 22:50:17: Total calculation time: 54551 ms.
2017-06-19 22:50:17: 100.00% completed.
2017-06-19 22:50:17: End of calculation.
2017-06-19 22:50:17: Total calculation time: 54579 ms.
2017-06-19 22:50:17: 100.00% completed.
2017-06-19 22:50:17: End of calculation.
2017-06-19 22:50:17: Total calculation time: 54583 ms.
done
computing RF ...
done
All done!
