pruning ...
done
computing MS ...
TreeCmp version 1.0-b291

Active options:
Type of the analysis:  one-to-all comparison mode (-r)
Metrics:
  1. MatchingSplit (ms)
Input file: ../gene_trees/randprune/kp.c1c2.gt.randprune.0.035.trees
Output file: ../results/kp.c1c2.randprune.0.035.MS.dat
Additional options:
P - Prune compared trees if needed (trees can have different leaf sets).
-----
2017-06-19 22:45:18: Start of scanning input file: ../gene_trees/randprune/kp.c1c2.gt.randprune.0.035.trees
2017-06-19 22:45:25: End of scanning input file: ../gene_trees/randprune/kp.c1c2.gt.randprune.0.035.trees
2017-06-19 22:45:25: 852 valid trees found in file: ../gene_trees/randprune/kp.c1c2.gt.randprune.0.035.trees
2017-06-19 22:45:26: Start of calculation...please wait...
2017-06-19 22:45:26: 0.00% completed...
2017-06-19 22:45:29: 5.05% completed...
2017-06-19 22:45:31: 10.09% completed...
2017-06-19 22:45:32: 15.14% completed...
2017-06-19 22:45:33: 20.19% completed...
2017-06-19 22:45:34: 25.23% completed...
2017-06-19 22:45:35: 30.28% completed...
2017-06-19 22:45:36: 35.33% completed...
2017-06-19 22:45:37: 40.38% completed...
2017-06-19 22:45:38: 45.42% completed...
2017-06-19 22:45:39: 50.47% completed...
2017-06-19 22:45:39: 55.52% completed...
2017-06-19 22:45:40: 60.56% completed...
2017-06-19 22:45:41: 65.61% completed...
2017-06-19 22:45:41: 70.66% completed...
2017-06-19 22:45:42: 75.70% completed...
2017-06-19 22:45:43: 80.75% completed...
2017-06-19 22:45:44: 85.80% completed...
2017-06-19 22:45:44: 90.85% completed...
2017-06-19 22:45:45: 95.89% completed...
2017-06-19 22:45:45: 100.00% completed.
2017-06-19 22:45:45: End of calculation.
2017-06-19 22:45:45: Total calculation time: 19689 ms.
done
computing RF ...
done
All done!
