pruning ...
done
computing MS ...
TreeCmp version 1.0-b291

Active options:
Type of the analysis:  one-to-all comparison mode (-r)
Metrics:
  1. MatchingSplit (ms)
Input file: ../gene_trees/randprune/kp.c1c2.gt.randprune.0.045.trees
Output file: ../results/kp.c1c2.randprune.0.045.MS.dat
Additional options:
P - Prune compared trees if needed (trees can have different leaf sets).
-----
2017-06-19 22:46:25: Start of scanning input file: ../gene_trees/randprune/kp.c1c2.gt.randprune.0.045.trees
2017-06-19 22:46:33: End of scanning input file: ../gene_trees/randprune/kp.c1c2.gt.randprune.0.045.trees
2017-06-19 22:46:33: 851 valid trees found in file: ../gene_trees/randprune/kp.c1c2.gt.randprune.0.045.trees
2017-06-19 22:46:33: Start of calculation...please wait...
2017-06-19 22:46:33: 0.00% completed...
2017-06-19 22:46:37: 5.05% completed...
2017-06-19 22:46:38: 10.11% completed...
2017-06-19 22:46:39: 15.16% completed...
2017-06-19 22:46:41: 20.21% completed...
2017-06-19 22:46:41: 25.26% completed...
2017-06-19 22:46:42: 30.32% completed...
2017-06-19 22:46:43: 35.37% completed...
2017-06-19 22:46:44: 40.42% completed...
2017-06-19 22:46:45: 45.48% completed...
2017-06-19 22:46:46: 50.53% completed...
2017-06-19 22:46:47: 55.58% completed...
2017-06-19 22:46:48: 60.63% completed...
2017-06-19 22:46:49: 65.69% completed...
2017-06-19 22:46:49: 70.74% completed...
2017-06-19 22:46:50: 75.79% completed...
2017-06-19 22:46:51: 80.85% completed...
2017-06-19 22:46:51: 85.90% completed...
2017-06-19 22:46:52: 90.95% completed...
2017-06-19 22:46:53: 96.00% completed...
2017-06-19 22:46:53: 100.00% completed.
2017-06-19 22:46:53: End of calculation.
2017-06-19 22:46:53: Total calculation time: 19916 ms.
done
computing RF ...
(standard_in) 2: syntax error
done
All done!
