pruning ...
done
computing MS ...
TreeCmp version 1.0-b291

Active options:
Type of the analysis:  one-to-all comparison mode (-r)
Metrics:
  1. MatchingSplit (ms)
Input file: ../gene_trees/randprune/kp.c1c2.gt.randprune.0.025.trees
Output file: ../results/kp.c1c2.randprune.0.025.MS.dat
Additional options:
P - Prune compared trees if needed (trees can have different leaf sets).
-----
2017-06-19 22:44:03: Start of scanning input file: ../gene_trees/randprune/kp.c1c2.gt.randprune.0.025.trees
2017-06-19 22:44:16: End of scanning input file: ../gene_trees/randprune/kp.c1c2.gt.randprune.0.025.trees
2017-06-19 22:44:16: 852 valid trees found in file: ../gene_trees/randprune/kp.c1c2.gt.randprune.0.025.trees
2017-06-19 22:44:16: Start of calculation...please wait...
2017-06-19 22:44:16: 0.00% completed...
2017-06-19 22:44:22: 5.05% completed...
2017-06-19 22:44:25: 10.09% completed...
2017-06-19 22:44:27: 15.14% completed...
2017-06-19 22:44:28: 20.19% completed...
2017-06-19 22:44:29: 25.23% completed...
2017-06-19 22:44:30: 30.28% completed...
2017-06-19 22:44:31: 35.33% completed...
2017-06-19 22:44:31: 40.38% completed...
2017-06-19 22:44:32: 45.42% completed...
2017-06-19 22:44:33: 50.47% completed...
2017-06-19 22:44:34: 55.52% completed...
2017-06-19 22:44:35: 60.56% completed...
2017-06-19 22:44:35: 65.61% completed...
2017-06-19 22:44:36: 70.66% completed...
2017-06-19 22:44:37: 75.70% completed...
2017-06-19 22:44:38: 80.75% completed...
2017-06-19 22:44:38: 85.80% completed...
2017-06-19 22:44:39: 90.85% completed...
2017-06-19 22:44:40: 95.89% completed...
2017-06-19 22:44:40: 100.00% completed.
2017-06-19 22:44:40: End of calculation.
2017-06-19 22:44:40: Total calculation time: 24280 ms.
done
computing RF ...
done
All done!
