pruning ...
done
computing MS ...
TreeCmp version 1.0-b291

Active options:
Type of the analysis:  one-to-all comparison mode (-r)
Metrics:
  1. MatchingSplit (ms)
Input file: ../gene_trees/randprune/kp.c1c2.gt.randprune.0.060.trees
Output file: ../results/kp.c1c2.randprune.0.060.MS.dat
Additional options:
P - Prune compared trees if needed (trees can have different leaf sets).
-----
2017-06-19 22:47:42: Start of scanning input file: ../gene_trees/randprune/kp.c1c2.gt.randprune.0.060.trees
2017-06-19 22:47:47: End of scanning input file: ../gene_trees/randprune/kp.c1c2.gt.randprune.0.060.trees
2017-06-19 22:47:47: 850 valid trees found in file: ../gene_trees/randprune/kp.c1c2.gt.randprune.0.060.trees
2017-06-19 22:47:47: Start of calculation...please wait...
2017-06-19 22:47:47: 0.00% completed...
2017-06-19 22:47:50: 5.06% completed...
2017-06-19 22:47:51: 10.12% completed...
2017-06-19 22:47:52: 15.18% completed...
2017-06-19 22:47:53: 20.24% completed...
2017-06-19 22:47:53: 25.29% completed...
2017-06-19 22:47:54: 30.35% completed...
2017-06-19 22:47:55: 35.41% completed...
2017-06-19 22:47:56: 40.47% completed...
2017-06-19 22:47:56: 45.53% completed...
2017-06-19 22:47:57: 50.59% completed...
2017-06-19 22:47:58: 55.65% completed...
2017-06-19 22:47:58: 60.71% completed...
2017-06-19 22:47:59: 65.76% completed...
2017-06-19 22:47:59: 70.82% completed...
2017-06-19 22:48:00: 75.88% completed...
2017-06-19 22:48:00: 80.94% completed...
2017-06-19 22:48:01: 86.00% completed...
2017-06-19 22:48:01: 91.06% completed...
2017-06-19 22:48:02: 96.12% completed...
2017-06-19 22:48:02: 100.00% completed.
2017-06-19 22:48:02: End of calculation.
2017-06-19 22:48:02: Total calculation time: 14711 ms.
done
computing RF ...
(standard_in) 2: syntax error
(standard_in) 2: syntax error
done
All done!
