pruning ...
Traceback (most recent call last):
  File "sampling.py", line 12, in <module>
    L1 = random.sample(L,k)
  File "/home/uym2/anaconda3/lib/python3.5/random.py", line 315, in sample
    raise ValueError("Sample larger than population")
ValueError: Sample larger than population
Usage: nw_prune [-h] <filename|-> <label> [label+]
done
computing MS ...
TreeCmp version 1.0-b291

Active options:
Type of the analysis:  one-to-all comparison mode (-r)
Metrics:
  1. MatchingSplit (ms)
Input file: ../gene_trees/randprune/kp.c1c2.gt.randprune.0.095.trees
Output file: ../results/kp.c1c2.randprune.0.095.MS.dat
Additional options:
P - Prune compared trees if needed (trees can have different leaf sets).
-----
2017-06-19 22:49:47: Start of scanning input file: ../gene_trees/randprune/kp.c1c2.gt.randprune.0.095.trees
2017-06-19 22:49:54: End of scanning input file: ../gene_trees/randprune/kp.c1c2.gt.randprune.0.095.trees
2017-06-19 22:49:54: 849 valid trees found in file: ../gene_trees/randprune/kp.c1c2.gt.randprune.0.095.trees
2017-06-19 22:49:54: Start of calculation...please wait...
2017-06-19 22:49:54: 0.00% completed...
2017-06-19 22:49:57: 5.06% completed...
2017-06-19 22:49:59: 10.13% completed...
2017-06-19 22:50:00: 15.19% completed...
2017-06-19 22:50:01: 20.26% completed...
2017-06-19 22:50:01: 25.32% completed...
2017-06-19 22:50:02: 30.39% completed...
2017-06-19 22:50:03: 35.45% completed...
2017-06-19 22:50:04: 40.52% completed...
2017-06-19 22:50:05: 45.58% completed...
2017-06-19 22:50:05: 50.65% completed...
2017-06-19 22:50:06: 55.71% completed...
2017-06-19 22:50:06: 60.78% completed...
2017-06-19 22:50:07: 65.84% completed...
2017-06-19 22:50:07: 70.91% completed...
2017-06-19 22:50:08: 75.97% completed...
2017-06-19 22:50:08: 81.04% completed...
2017-06-19 22:50:09: 86.10% completed...
2017-06-19 22:50:09: 91.17% completed...
2017-06-19 22:50:10: 96.23% completed...
2017-06-19 22:50:10: 100.00% completed.
2017-06-19 22:50:10: End of calculation.
2017-06-19 22:50:10: Total calculation time: 16139 ms.
done
computing RF ...
(standard_in) 2: syntax error
(standard_in) 2: syntax error
done
All done!
