pruning ...
done
computing MS ...
TreeCmp version 1.0-b291

Active options:
Type of the analysis:  one-to-all comparison mode (-r)
Metrics:
  1. MatchingSplit (ms)
Input file: ../gene_trees/randprune/kp.c1c2.gt.randprune.0.005.trees
Output file: ../results/kp.c1c2.randprune.0.005.MS.dat
Additional options:
P - Prune compared trees if needed (trees can have different leaf sets).
-----
2017-06-19 22:41:23: Start of scanning input file: ../gene_trees/randprune/kp.c1c2.gt.randprune.0.005.trees
2017-06-19 22:41:30: End of scanning input file: ../gene_trees/randprune/kp.c1c2.gt.randprune.0.005.trees
2017-06-19 22:41:30: 852 valid trees found in file: ../gene_trees/randprune/kp.c1c2.gt.randprune.0.005.trees
2017-06-19 22:41:30: Start of calculation...please wait...
2017-06-19 22:41:30: 0.00% completed...
2017-06-19 22:41:34: 5.05% completed...
2017-06-19 22:41:35: 10.09% completed...
2017-06-19 22:41:37: 15.14% completed...
2017-06-19 22:41:38: 20.19% completed...
2017-06-19 22:41:39: 25.23% completed...
2017-06-19 22:41:40: 30.28% completed...
2017-06-19 22:41:41: 35.33% completed...
2017-06-19 22:41:42: 40.38% completed...
2017-06-19 22:41:43: 45.42% completed...
2017-06-19 22:41:44: 50.47% completed...
2017-06-19 22:41:44: 55.52% completed...
2017-06-19 22:41:45: 60.56% completed...
2017-06-19 22:41:46: 65.61% completed...
2017-06-19 22:41:47: 70.66% completed...
2017-06-19 22:41:48: 75.70% completed...
2017-06-19 22:41:48: 80.75% completed...
2017-06-19 22:41:49: 85.80% completed...
2017-06-19 22:41:50: 90.85% completed...
2017-06-19 22:41:50: 95.89% completed...
2017-06-19 22:41:50: 100.00% completed.
2017-06-19 22:41:50: End of calculation.
2017-06-19 22:41:50: Total calculation time: 20308 ms.
done
computing RF ...
done
All done!
