pruning ...
done
computing MS ...
TreeCmp version 1.0-b291

Active options:
Type of the analysis:  one-to-all comparison mode (-r)
Metrics:
  1. MatchingSplit (ms)
Input file: ../gene_trees/randprune/kp.c1c2.gt.randprune.0.085.trees
Output file: ../results/kp.c1c2.randprune.0.085.MS.dat
Additional options:
P - Prune compared trees if needed (trees can have different leaf sets).
-----
2017-06-19 22:49:07: Start of scanning input file: ../gene_trees/randprune/kp.c1c2.gt.randprune.0.085.trees
2017-06-19 22:49:14: End of scanning input file: ../gene_trees/randprune/kp.c1c2.gt.randprune.0.085.trees
2017-06-19 22:49:14: 850 valid trees found in file: ../gene_trees/randprune/kp.c1c2.gt.randprune.0.085.trees
2017-06-19 22:49:15: Start of calculation...please wait...
2017-06-19 22:49:15: 0.00% completed...
2017-06-19 22:49:17: 5.06% completed...
2017-06-19 22:49:19: 10.12% completed...
2017-06-19 22:49:20: 15.18% completed...
2017-06-19 22:49:21: 20.24% completed...
2017-06-19 22:49:22: 25.29% completed...
2017-06-19 22:49:23: 30.35% completed...
2017-06-19 22:49:24: 35.41% completed...
2017-06-19 22:49:24: 40.47% completed...
2017-06-19 22:49:25: 45.53% completed...
2017-06-19 22:49:26: 50.59% completed...
2017-06-19 22:49:26: 55.65% completed...
2017-06-19 22:49:27: 60.71% completed...
2017-06-19 22:49:28: 65.76% completed...
2017-06-19 22:49:28: 70.82% completed...
2017-06-19 22:49:29: 75.88% completed...
2017-06-19 22:49:30: 80.94% completed...
2017-06-19 22:49:30: 86.00% completed...
2017-06-19 22:49:31: 91.06% completed...
2017-06-19 22:49:31: 96.12% completed...
2017-06-19 22:49:32: 100.00% completed.
2017-06-19 22:49:32: End of calculation.
2017-06-19 22:49:32: Total calculation time: 17286 ms.
done
computing RF ...
(standard_in) 2: syntax error
(standard_in) 2: syntax error
done
All done!
