pruning ...
done
computing MS ...
TreeCmp version 1.0-b291

Active options:
Type of the analysis:  one-to-all comparison mode (-r)
Metrics:
  1. MatchingSplit (ms)
Input file: ../gene_trees/randprune/kp.c1c2.gt.randprune.0.075.trees
Output file: ../results/kp.c1c2.randprune.0.075.MS.dat
Additional options:
P - Prune compared trees if needed (trees can have different leaf sets).
-----
2017-06-19 22:48:40: Start of scanning input file: ../gene_trees/randprune/kp.c1c2.gt.randprune.0.075.trees
2017-06-19 22:48:47: End of scanning input file: ../gene_trees/randprune/kp.c1c2.gt.randprune.0.075.trees
2017-06-19 22:48:47: 850 valid trees found in file: ../gene_trees/randprune/kp.c1c2.gt.randprune.0.075.trees
2017-06-19 22:48:47: Start of calculation...please wait...
2017-06-19 22:48:47: 0.00% completed...
2017-06-19 22:48:51: 5.06% completed...
2017-06-19 22:48:52: 10.12% completed...
2017-06-19 22:48:53: 15.18% completed...
2017-06-19 22:48:54: 20.24% completed...
2017-06-19 22:48:55: 25.29% completed...
2017-06-19 22:48:56: 30.35% completed...
2017-06-19 22:48:57: 35.41% completed...
2017-06-19 22:48:58: 40.47% completed...
2017-06-19 22:48:59: 45.53% completed...
2017-06-19 22:49:00: 50.59% completed...
2017-06-19 22:49:00: 55.65% completed...
2017-06-19 22:49:01: 60.71% completed...
2017-06-19 22:49:02: 65.76% completed...
2017-06-19 22:49:02: 70.82% completed...
2017-06-19 22:49:03: 75.88% completed...
2017-06-19 22:49:04: 80.94% completed...
2017-06-19 22:49:04: 86.00% completed...
2017-06-19 22:49:05: 91.06% completed...
2017-06-19 22:49:05: 96.12% completed...
2017-06-19 22:49:06: 100.00% completed.
2017-06-19 22:49:06: End of calculation.
2017-06-19 22:49:06: Total calculation time: 18418 ms.
done
computing RF ...
(standard_in) 2: syntax error
(standard_in) 2: syntax error
done
All done!
