TreeCmp version 1.0-b291

Active options:
Type of the analysis:  one-to-all comparison mode (-r)
Metrics:
  1. MatchingSplit (ms)
Input file: ../gene_trees/rogueNarok/kp.c1c2.RnR.25.trees
Output file: ../results/kp.c1c2.RnR.25.MS.dat
Additional options:
P - Prune compared trees if needed (trees can have different leaf sets).
-----
2017-06-20 11:44:56: Start of scanning input file: ../gene_trees/rogueNarok/kp.c1c2.RnR.25.trees
2017-06-20 11:44:59: End of scanning input file: ../gene_trees/rogueNarok/kp.c1c2.RnR.25.trees
2017-06-20 11:44:59: 852 valid trees found in file: ../gene_trees/rogueNarok/kp.c1c2.RnR.25.trees
2017-06-20 11:44:59: Start of calculation...please wait...
2017-06-20 11:44:59: 0.00% completed...
2017-06-20 11:45:01: 5.05% completed...
2017-06-20 11:45:02: 10.09% completed...
2017-06-20 11:45:03: 15.14% completed...
2017-06-20 11:45:04: 20.19% completed...
2017-06-20 11:45:04: 25.23% completed...
2017-06-20 11:45:04: 30.28% completed...
2017-06-20 11:45:05: 35.33% completed...
2017-06-20 11:45:05: 40.38% completed...
2017-06-20 11:45:05: 45.42% completed...
2017-06-20 11:45:06: 50.47% completed...
2017-06-20 11:45:06: 55.52% completed...
2017-06-20 11:45:06: 60.56% completed...
2017-06-20 11:45:06: 65.61% completed...
2017-06-20 11:45:06: 70.66% completed...
2017-06-20 11:45:06: 75.70% completed...
2017-06-20 11:45:06: 80.75% completed...
2017-06-20 11:45:07: 85.80% completed...
2017-06-20 11:45:07: 90.85% completed...
2017-06-20 11:45:07: 95.89% completed...
2017-06-20 11:45:07: 100.00% completed.
2017-06-20 11:45:07: End of calculation.
2017-06-20 11:45:07: Total calculation time: 7209 ms.
