pruning ...
done
computing MS ...
TreeCmp version 1.0-b291

Active options:
Type of the analysis:  one-to-all comparison mode (-r)
Metrics:
  1. MatchingSplit (ms)
Input file: ../gene_trees/randprune/kp.c1c2.gt.randprune.0.030.trees
Output file: ../results/kp.c1c2.randprune.0.030.MS.dat
Additional options:
P - Prune compared trees if needed (trees can have different leaf sets).
-----
2017-06-19 22:44:39: Start of scanning input file: ../gene_trees/randprune/kp.c1c2.gt.randprune.0.030.trees
2017-06-19 22:44:46: End of scanning input file: ../gene_trees/randprune/kp.c1c2.gt.randprune.0.030.trees
2017-06-19 22:44:46: 852 valid trees found in file: ../gene_trees/randprune/kp.c1c2.gt.randprune.0.030.trees
2017-06-19 22:44:46: Start of calculation...please wait...
2017-06-19 22:44:46: 0.00% completed...
2017-06-19 22:44:49: 5.05% completed...
2017-06-19 22:44:51: 10.09% completed...
2017-06-19 22:44:52: 15.14% completed...
2017-06-19 22:44:53: 20.19% completed...
2017-06-19 22:44:54: 25.23% completed...
2017-06-19 22:44:55: 30.28% completed...
2017-06-19 22:44:56: 35.33% completed...
2017-06-19 22:44:57: 40.38% completed...
2017-06-19 22:44:58: 45.42% completed...
2017-06-19 22:44:59: 50.47% completed...
2017-06-19 22:44:59: 55.52% completed...
2017-06-19 22:45:00: 60.56% completed...
2017-06-19 22:45:01: 65.61% completed...
2017-06-19 22:45:01: 70.66% completed...
2017-06-19 22:45:02: 75.70% completed...
2017-06-19 22:45:03: 80.75% completed...
2017-06-19 22:45:04: 85.80% completed...
2017-06-19 22:45:04: 90.85% completed...
2017-06-19 22:45:05: 95.89% completed...
2017-06-19 22:45:05: 100.00% completed.
2017-06-19 22:45:05: End of calculation.
2017-06-19 22:45:05: Total calculation time: 19015 ms.
done
computing RF ...
done
All done!
