pruning ...
Traceback (most recent call last):
  File "sampling.py", line 12, in <module>
    L1 = random.sample(L,k)
  File "/home/uym2/anaconda3/lib/python3.5/random.py", line 315, in sample
    raise ValueError("Sample larger than population")
ValueError: Sample larger than population
Usage: nw_prune [-h] <filename|-> <label> [label+]
Traceback (most recent call last):
  File "sampling.py", line 12, in <module>
    L1 = random.sample(L,k)
  File "/home/uym2/anaconda3/lib/python3.5/random.py", line 315, in sample
    raise ValueError("Sample larger than population")
ValueError: Sample larger than population
Usage: nw_prune [-h] <filename|-> <label> [label+]
done
computing MS ...
TreeCmp version 1.0-b291

Active options:
Type of the analysis:  one-to-all comparison mode (-r)
Metrics:
  1. MatchingSplit (ms)
Input file: ../gene_trees/randprune/kp.c1c2.gt.randprune.0.100.trees
Output file: ../results/kp.c1c2.randprune.0.100.MS.dat
Additional options:
P - Prune compared trees if needed (trees can have different leaf sets).
-----
2017-06-19 22:49:59: Start of scanning input file: ../gene_trees/randprune/kp.c1c2.gt.randprune.0.100.trees
2017-06-19 22:50:06: End of scanning input file: ../gene_trees/randprune/kp.c1c2.gt.randprune.0.100.trees
2017-06-19 22:50:06: 848 valid trees found in file: ../gene_trees/randprune/kp.c1c2.gt.randprune.0.100.trees
2017-06-19 22:50:06: Start of calculation...please wait...
2017-06-19 22:50:07: 0.00% completed...
2017-06-19 22:50:09: 5.07% completed...
2017-06-19 22:50:10: 10.14% completed...
2017-06-19 22:50:12: 15.21% completed...
2017-06-19 22:50:12: 20.28% completed...
2017-06-19 22:50:13: 25.35% completed...
2017-06-19 22:50:14: 30.42% completed...
2017-06-19 22:50:15: 35.50% completed...
2017-06-19 22:50:15: 40.57% completed...
2017-06-19 22:50:16: 45.64% completed...
2017-06-19 22:50:17: 50.71% completed...
2017-06-19 22:50:17: 55.78% completed...
2017-06-19 22:50:18: 60.85% completed...
2017-06-19 22:50:18: 65.92% completed...
2017-06-19 22:50:19: 70.99% completed...
2017-06-19 22:50:19: 76.06% completed...
2017-06-19 22:50:20: 81.13% completed...
2017-06-19 22:50:20: 86.20% completed...
2017-06-19 22:50:20: 91.27% completed...
2017-06-19 22:50:21: 96.34% completed...
2017-06-19 22:50:21: 100.00% completed.
2017-06-19 22:50:21: End of calculation.
2017-06-19 22:50:21: Total calculation time: 14379 ms.
done
computing RF ...
(standard_in) 2: syntax error
(standard_in) 2: syntax error
done
All done!
