pruning ...
Traceback (most recent call last):
  File "sampling.py", line 12, in <module>
    L1 = random.sample(L,k)
  File "/home/uym2/anaconda3/lib/python3.5/random.py", line 315, in sample
    raise ValueError("Sample larger than population")
ValueError: Sample larger than population
Usage: nw_prune [-h] <filename|-> <label> [label+]
Traceback (most recent call last):
  File "sampling.py", line 12, in <module>
    L1 = random.sample(L,k)
  File "/home/uym2/anaconda3/lib/python3.5/random.py", line 315, in sample
    raise ValueError("Sample larger than population")
ValueError: Sample larger than population
Usage: nw_prune [-h] <filename|-> <label> [label+]
Traceback (most recent call last):
  File "sampling.py", line 12, in <module>
    L1 = random.sample(L,k)
  File "/home/uym2/anaconda3/lib/python3.5/random.py", line 315, in sample
    raise ValueError("Sample larger than population")
ValueError: Sample larger than population
Usage: nw_prune [-h] <filename|-> <label> [label+]
done
computing MS ...
TreeCmp version 1.0-b291

Active options:
Type of the analysis:  one-to-all comparison mode (-r)
Metrics:
  1. MatchingSplit (ms)
Input file: ../gene_trees/randprune/kp.c1c2.gt.randprune.0.115.trees
Output file: ../results/kp.c1c2.randprune.0.115.MS.dat
Additional options:
P - Prune compared trees if needed (trees can have different leaf sets).
-----
2017-06-19 22:50:22: Start of scanning input file: ../gene_trees/randprune/kp.c1c2.gt.randprune.0.115.trees
2017-06-19 22:50:26: End of scanning input file: ../gene_trees/randprune/kp.c1c2.gt.randprune.0.115.trees
2017-06-19 22:50:26: 847 valid trees found in file: ../gene_trees/randprune/kp.c1c2.gt.randprune.0.115.trees
2017-06-19 22:50:26: Start of calculation...please wait...
2017-06-19 22:50:26: 0.00% completed...
2017-06-19 22:50:28: 5.08% completed...
2017-06-19 22:50:29: 10.15% completed...
2017-06-19 22:50:30: 15.23% completed...
2017-06-19 22:50:31: 20.31% completed...
2017-06-19 22:50:31: 25.38% completed...
2017-06-19 22:50:32: 30.46% completed...
2017-06-19 22:50:32: 35.54% completed...
2017-06-19 22:50:33: 40.61% completed...
2017-06-19 22:50:33: 45.69% completed...
2017-06-19 22:50:34: 50.77% completed...
2017-06-19 22:50:35: 55.84% completed...
2017-06-19 22:50:35: 60.92% completed...
2017-06-19 22:50:35: 66.00% completed...
2017-06-19 22:50:36: 71.07% completed...
2017-06-19 22:50:36: 76.15% completed...
2017-06-19 22:50:37: 81.23% completed...
2017-06-19 22:50:37: 86.30% completed...
2017-06-19 22:50:37: 91.38% completed...
2017-06-19 22:50:37: 96.46% completed...
2017-06-19 22:50:38: 100.00% completed.
2017-06-19 22:50:38: End of calculation.
2017-06-19 22:50:38: Total calculation time: 11302 ms.
done
computing RF ...
(standard_in) 2: syntax error
(standard_in) 2: syntax error
done
All done!
