pruning ...
done
computing MS ...
TreeCmp version 1.0-b291

Active options:
Type of the analysis:  one-to-all comparison mode (-r)
Metrics:
  1. MatchingSplit (ms)
Input file: ../gene_trees/randprune/kp.c1c2.gt.randprune.0.040.trees
Output file: ../results/kp.c1c2.randprune.0.040.MS.dat
Additional options:
P - Prune compared trees if needed (trees can have different leaf sets).
-----
2017-06-19 22:45:58: Start of scanning input file: ../gene_trees/randprune/kp.c1c2.gt.randprune.0.040.trees
2017-06-19 22:46:06: End of scanning input file: ../gene_trees/randprune/kp.c1c2.gt.randprune.0.040.trees
2017-06-19 22:46:06: 851 valid trees found in file: ../gene_trees/randprune/kp.c1c2.gt.randprune.0.040.trees
2017-06-19 22:46:06: Start of calculation...please wait...
2017-06-19 22:46:06: 0.00% completed...
2017-06-19 22:46:10: 5.05% completed...
2017-06-19 22:46:11: 10.11% completed...
2017-06-19 22:46:12: 15.16% completed...
2017-06-19 22:46:13: 20.21% completed...
2017-06-19 22:46:14: 25.26% completed...
2017-06-19 22:46:15: 30.32% completed...
2017-06-19 22:46:16: 35.37% completed...
2017-06-19 22:46:18: 40.42% completed...
2017-06-19 22:46:18: 45.48% completed...
2017-06-19 22:46:19: 50.53% completed...
2017-06-19 22:46:20: 55.58% completed...
2017-06-19 22:46:21: 60.63% completed...
2017-06-19 22:46:22: 65.69% completed...
2017-06-19 22:46:23: 70.74% completed...
2017-06-19 22:46:23: 75.79% completed...
2017-06-19 22:46:24: 80.85% completed...
2017-06-19 22:46:25: 85.90% completed...
2017-06-19 22:46:25: 90.95% completed...
2017-06-19 22:46:26: 96.00% completed...
2017-06-19 22:46:26: 100.00% completed.
2017-06-19 22:46:26: End of calculation.
2017-06-19 22:46:26: Total calculation time: 19909 ms.
done
computing RF ...
(standard_in) 2: syntax error
done
All done!
