pruning ...
done
computing MS ...
TreeCmp version 1.0-b291

Active options:
Type of the analysis:  one-to-all comparison mode (-r)
Metrics:
  1. MatchingSplit (ms)
Input file: ../gene_trees/randprune/kp.c1c2.gt.randprune.0.065.trees
Output file: ../results/kp.c1c2.randprune.0.065.MS.dat
Additional options:
P - Prune compared trees if needed (trees can have different leaf sets).
-----
2017-06-19 22:48:03: Start of scanning input file: ../gene_trees/randprune/kp.c1c2.gt.randprune.0.065.trees
2017-06-19 22:48:09: End of scanning input file: ../gene_trees/randprune/kp.c1c2.gt.randprune.0.065.trees
2017-06-19 22:48:09: 850 valid trees found in file: ../gene_trees/randprune/kp.c1c2.gt.randprune.0.065.trees
2017-06-19 22:48:09: Start of calculation...please wait...
2017-06-19 22:48:09: 0.00% completed...
2017-06-19 22:48:12: 5.06% completed...
2017-06-19 22:48:13: 10.12% completed...
2017-06-19 22:48:14: 15.18% completed...
2017-06-19 22:48:15: 20.24% completed...
2017-06-19 22:48:16: 25.29% completed...
2017-06-19 22:48:17: 30.35% completed...
2017-06-19 22:48:17: 35.41% completed...
2017-06-19 22:48:18: 40.47% completed...
2017-06-19 22:48:19: 45.53% completed...
2017-06-19 22:48:19: 50.59% completed...
2017-06-19 22:48:20: 55.65% completed...
2017-06-19 22:48:21: 60.71% completed...
2017-06-19 22:48:21: 65.76% completed...
2017-06-19 22:48:22: 70.82% completed...
2017-06-19 22:48:22: 75.88% completed...
2017-06-19 22:48:23: 80.94% completed...
2017-06-19 22:48:23: 86.00% completed...
2017-06-19 22:48:24: 91.06% completed...
2017-06-19 22:48:24: 96.12% completed...
2017-06-19 22:48:25: 100.00% completed.
2017-06-19 22:48:25: End of calculation.
2017-06-19 22:48:25: Total calculation time: 15396 ms.
done
computing RF ...
(standard_in) 2: syntax error
(standard_in) 2: syntax error
done
All done!
