pruning ...
Traceback (most recent call last):
  File "sampling.py", line 12, in <module>
    L1 = random.sample(L,k)
  File "/home/uym2/anaconda3/lib/python3.5/random.py", line 315, in sample
    raise ValueError("Sample larger than population")
ValueError: Sample larger than population
Usage: nw_prune [-h] <filename|-> <label> [label+]
Traceback (most recent call last):
  File "sampling.py", line 12, in <module>
    L1 = random.sample(L,k)
  File "/home/uym2/anaconda3/lib/python3.5/random.py", line 315, in sample
    raise ValueError("Sample larger than population")
ValueError: Sample larger than population
Usage: nw_prune [-h] <filename|-> <label> [label+]
Traceback (most recent call last):
  File "sampling.py", line 12, in <module>
    L1 = random.sample(L,k)
  File "/home/uym2/anaconda3/lib/python3.5/random.py", line 315, in sample
    raise ValueError("Sample larger than population")
ValueError: Sample larger than population
Usage: nw_prune [-h] <filename|-> <label> [label+]
done
computing MS ...
TreeCmp version 1.0-b291

Active options:
Type of the analysis:  one-to-all comparison mode (-r)
Metrics:
  1. MatchingSplit (ms)
Input file: ../gene_trees/randprune/kp.c1c2.gt.randprune.0.125.trees
Output file: ../results/kp.c1c2.randprune.0.125.MS.dat
Additional options:
P - Prune compared trees if needed (trees can have different leaf sets).
-----
2017-06-19 22:50:34: Start of scanning input file: ../gene_trees/randprune/kp.c1c2.gt.randprune.0.125.trees
2017-06-19 22:50:40: End of scanning input file: ../gene_trees/randprune/kp.c1c2.gt.randprune.0.125.trees
2017-06-19 22:50:40: 847 valid trees found in file: ../gene_trees/randprune/kp.c1c2.gt.randprune.0.125.trees
2017-06-19 22:50:40: Start of calculation...please wait...
2017-06-19 22:50:40: 0.00% completed...
2017-06-19 22:50:42: 5.08% completed...
2017-06-19 22:50:43: 10.15% completed...
2017-06-19 22:50:44: 15.23% completed...
2017-06-19 22:50:45: 20.31% completed...
2017-06-19 22:50:45: 25.38% completed...
2017-06-19 22:50:46: 30.46% completed...
2017-06-19 22:50:47: 35.54% completed...
2017-06-19 22:50:47: 40.61% completed...
2017-06-19 22:50:48: 45.69% completed...
2017-06-19 22:50:48: 50.77% completed...
2017-06-19 22:50:49: 55.84% completed...
2017-06-19 22:50:49: 60.92% completed...
2017-06-19 22:50:50: 66.00% completed...
2017-06-19 22:50:50: 71.07% completed...
2017-06-19 22:50:51: 76.15% completed...
2017-06-19 22:50:51: 81.23% completed...
2017-06-19 22:50:51: 86.30% completed...
2017-06-19 22:50:51: 91.38% completed...
2017-06-19 22:50:52: 96.46% completed...
2017-06-19 22:50:52: 100.00% completed.
2017-06-19 22:50:52: End of calculation.
2017-06-19 22:50:52: Total calculation time: 12171 ms.
done
computing RF ...
(standard_in) 2: syntax error
(standard_in) 2: syntax error
done
All done!
