extracting occupancy ...
grep: ../results/kp.c1c2.LBF.0.095.score.log: No such file or directory
done
computing MS ...
TreeCmp version 1.0-b291

Active options:
Type of the analysis:  one-to-all comparison mode (-r)
Metrics:
  1. MatchingSplit (ms)
Input file: ../gene_trees/LBF/kp.c1c2.gt.LBF.0.095.trees
Output file: ../results/kp.c1c2.0.095.MS.dat
Additional options:
P - Prune compared trees if needed (trees can have different leaf sets).
-----
2017-06-19 21:52:24: Start of scanning input file: ../gene_trees/LBF/kp.c1c2.gt.LBF.0.095.trees
2017-06-19 21:52:32: End of scanning input file: ../gene_trees/LBF/kp.c1c2.gt.LBF.0.095.trees
2017-06-19 21:52:32: 852 valid trees found in file: ../gene_trees/LBF/kp.c1c2.gt.LBF.0.095.trees
2017-06-19 21:52:32: Start of calculation...please wait...
2017-06-19 21:52:32: 0.00% completed...
2017-06-19 21:52:36: 5.05% completed...
2017-06-19 21:52:38: 10.09% completed...
2017-06-19 21:52:39: 15.14% completed...
2017-06-19 21:52:41: 20.19% completed...
2017-06-19 21:52:41: 25.23% completed...
2017-06-19 21:52:42: 30.28% completed...
2017-06-19 21:52:43: 35.33% completed...
2017-06-19 21:52:44: 40.38% completed...
2017-06-19 21:52:45: 45.42% completed...
2017-06-19 21:52:45: 50.47% completed...
2017-06-19 21:52:46: 55.52% completed...
2017-06-19 21:52:47: 60.56% completed...
2017-06-19 21:52:47: 65.61% completed...
2017-06-19 21:52:48: 70.66% completed...
2017-06-19 21:52:48: 75.70% completed...
2017-06-19 21:52:48: 80.75% completed...
2017-06-19 21:52:49: 85.80% completed...
2017-06-19 21:52:49: 90.85% completed...
2017-06-19 21:52:49: 95.89% completed...
2017-06-19 21:52:49: 100.00% completed.
2017-06-19 21:52:49: End of calculation.
2017-06-19 21:52:49: Total calculation time: 17797 ms.
done
computing RF ...
(standard_in) 2: syntax error
done
All done!
