pruning ...
Traceback (most recent call last):
  File "sampling.py", line 12, in <module>
    L1 = random.sample(L,k)
  File "/home/uym2/anaconda3/lib/python3.5/random.py", line 315, in sample
    raise ValueError("Sample larger than population")
ValueError: Sample larger than population
Usage: nw_prune [-h] <filename|-> <label> [label+]
Traceback (most recent call last):
  File "sampling.py", line 12, in <module>
    L1 = random.sample(L,k)
  File "/home/uym2/anaconda3/lib/python3.5/random.py", line 315, in sample
    raise ValueError("Sample larger than population")
ValueError: Sample larger than population
Usage: nw_prune [-h] <filename|-> <label> [label+]
done
computing MS ...
TreeCmp version 1.0-b291

Active options:
Type of the analysis:  one-to-all comparison mode (-r)
Metrics:
  1. MatchingSplit (ms)
Input file: ../gene_trees/randprune/kp.c1c2.gt.randprune.0.110.trees
Output file: ../results/kp.c1c2.randprune.0.110.MS.dat
Additional options:
P - Prune compared trees if needed (trees can have different leaf sets).
-----
2017-06-19 22:50:15: Start of scanning input file: ../gene_trees/randprune/kp.c1c2.gt.randprune.0.110.trees
2017-06-19 22:50:20: End of scanning input file: ../gene_trees/randprune/kp.c1c2.gt.randprune.0.110.trees
2017-06-19 22:50:20: 848 valid trees found in file: ../gene_trees/randprune/kp.c1c2.gt.randprune.0.110.trees
2017-06-19 22:50:20: Start of calculation...please wait...
2017-06-19 22:50:20: 0.00% completed...
2017-06-19 22:50:22: 5.07% completed...
2017-06-19 22:50:23: 10.14% completed...
2017-06-19 22:50:23: 15.21% completed...
2017-06-19 22:50:24: 20.28% completed...
2017-06-19 22:50:25: 25.35% completed...
2017-06-19 22:50:25: 30.42% completed...
2017-06-19 22:50:26: 35.50% completed...
2017-06-19 22:50:26: 40.57% completed...
2017-06-19 22:50:26: 45.64% completed...
2017-06-19 22:50:27: 50.71% completed...
2017-06-19 22:50:27: 55.78% completed...
2017-06-19 22:50:28: 60.85% completed...
2017-06-19 22:50:28: 65.92% completed...
2017-06-19 22:50:29: 70.99% completed...
2017-06-19 22:50:29: 76.06% completed...
2017-06-19 22:50:30: 81.13% completed...
2017-06-19 22:50:30: 86.20% completed...
2017-06-19 22:50:31: 91.27% completed...
2017-06-19 22:50:31: 96.34% completed...
2017-06-19 22:50:31: 100.00% completed.
2017-06-19 22:50:31: End of calculation.
2017-06-19 22:50:31: Total calculation time: 11084 ms.
done
computing RF ...
(standard_in) 2: syntax error
(standard_in) 2: syntax error
done
All done!
