pruning ...
done
computing MS ...
TreeCmp version 1.0-b291

Active options:
Type of the analysis:  one-to-all comparison mode (-r)
Metrics:
  1. MatchingSplit (ms)
Input file: ../gene_trees/randprune/kp.c1c2.gt.randprune.0.090.trees
Output file: ../results/kp.c1c2.randprune.0.090.MS.dat
Additional options:
P - Prune compared trees if needed (trees can have different leaf sets).
-----
2017-06-19 22:49:28: Start of scanning input file: ../gene_trees/randprune/kp.c1c2.gt.randprune.0.090.trees
2017-06-19 22:49:35: End of scanning input file: ../gene_trees/randprune/kp.c1c2.gt.randprune.0.090.trees
2017-06-19 22:49:35: 850 valid trees found in file: ../gene_trees/randprune/kp.c1c2.gt.randprune.0.090.trees
2017-06-19 22:49:35: Start of calculation...please wait...
2017-06-19 22:49:36: 0.00% completed...
2017-06-19 22:49:38: 5.06% completed...
2017-06-19 22:49:39: 10.12% completed...
2017-06-19 22:49:41: 15.18% completed...
2017-06-19 22:49:41: 20.24% completed...
2017-06-19 22:49:42: 25.29% completed...
2017-06-19 22:49:43: 30.35% completed...
2017-06-19 22:49:44: 35.41% completed...
2017-06-19 22:49:44: 40.47% completed...
2017-06-19 22:49:45: 45.53% completed...
2017-06-19 22:49:46: 50.59% completed...
2017-06-19 22:49:46: 55.65% completed...
2017-06-19 22:49:47: 60.71% completed...
2017-06-19 22:49:48: 65.76% completed...
2017-06-19 22:49:49: 70.82% completed...
2017-06-19 22:49:49: 75.88% completed...
2017-06-19 22:49:50: 80.94% completed...
2017-06-19 22:49:50: 86.00% completed...
2017-06-19 22:49:51: 91.06% completed...
2017-06-19 22:49:51: 96.12% completed...
2017-06-19 22:49:52: 100.00% completed.
2017-06-19 22:49:52: End of calculation.
2017-06-19 22:49:52: Total calculation time: 16110 ms.
done
computing RF ...
(standard_in) 2: syntax error
(standard_in) 2: syntax error
done
All done!
