pruning ...
done
computing MS ...
TreeCmp version 1.0-b291

Active options:
Type of the analysis:  one-to-all comparison mode (-r)
Metrics:
  1. MatchingSplit (ms)
Input file: ../gene_trees/randprune/kp.c1c2.gt.randprune.0.020.trees
Output file: ../results/kp.c1c2.randprune.0.020.MS.dat
Additional options:
P - Prune compared trees if needed (trees can have different leaf sets).
-----
2017-06-19 22:43:25: Start of scanning input file: ../gene_trees/randprune/kp.c1c2.gt.randprune.0.020.trees
2017-06-19 22:43:32: End of scanning input file: ../gene_trees/randprune/kp.c1c2.gt.randprune.0.020.trees
2017-06-19 22:43:32: 852 valid trees found in file: ../gene_trees/randprune/kp.c1c2.gt.randprune.0.020.trees
2017-06-19 22:43:32: Start of calculation...please wait...
2017-06-19 22:43:32: 0.00% completed...
2017-06-19 22:43:35: 5.05% completed...
2017-06-19 22:43:37: 10.09% completed...
2017-06-19 22:43:38: 15.14% completed...
2017-06-19 22:43:39: 20.19% completed...
2017-06-19 22:43:39: 25.23% completed...
2017-06-19 22:43:40: 30.28% completed...
2017-06-19 22:43:41: 35.33% completed...
2017-06-19 22:43:42: 40.38% completed...
2017-06-19 22:43:43: 45.42% completed...
2017-06-19 22:43:44: 50.47% completed...
2017-06-19 22:43:44: 55.52% completed...
2017-06-19 22:43:45: 60.56% completed...
2017-06-19 22:43:46: 65.61% completed...
2017-06-19 22:43:46: 70.66% completed...
2017-06-19 22:43:47: 75.70% completed...
2017-06-19 22:43:47: 80.75% completed...
2017-06-19 22:43:48: 85.80% completed...
2017-06-19 22:43:48: 90.85% completed...
2017-06-19 22:43:49: 95.89% completed...
2017-06-19 22:43:49: 100.00% completed.
2017-06-19 22:43:49: End of calculation.
2017-06-19 22:43:49: Total calculation time: 16934 ms.
done
computing RF ...
done
All done!
