extracting occupancy ...
grep: ../results/kp.c1c2.LBF.0.140.score.log: No such file or directory
done
computing MS ...
TreeCmp version 1.0-b291

Active options:
Type of the analysis:  one-to-all comparison mode (-r)
Metrics:
  1. MatchingSplit (ms)
Input file: ../gene_trees/LBF/kp.c1c2.gt.LBF.0.140.trees
Output file: ../results/kp.c1c2.0.140.MS.dat
Additional options:
P - Prune compared trees if needed (trees can have different leaf sets).
-----
2017-06-19 21:52:25: Start of scanning input file: ../gene_trees/LBF/kp.c1c2.gt.LBF.0.140.trees
2017-06-19 21:52:30: End of scanning input file: ../gene_trees/LBF/kp.c1c2.gt.LBF.0.140.trees
2017-06-19 21:52:30: 852 valid trees found in file: ../gene_trees/LBF/kp.c1c2.gt.LBF.0.140.trees
2017-06-19 21:52:30: Start of calculation...please wait...
2017-06-19 21:52:31: 0.00% completed...
2017-06-19 21:52:33: 5.05% completed...
2017-06-19 21:52:35: 10.09% completed...
2017-06-19 21:52:36: 15.14% completed...
2017-06-19 21:52:37: 20.19% completed...
2017-06-19 21:52:38: 25.23% completed...
2017-06-19 21:52:39: 30.28% completed...
2017-06-19 21:52:40: 35.33% completed...
2017-06-19 21:52:41: 40.38% completed...
2017-06-19 21:52:41: 45.42% completed...
2017-06-19 21:52:42: 50.47% completed...
2017-06-19 21:52:43: 55.52% completed...
2017-06-19 21:52:43: 60.56% completed...
2017-06-19 21:52:44: 65.61% completed...
2017-06-19 21:52:44: 70.66% completed...
2017-06-19 21:52:44: 75.70% completed...
2017-06-19 21:52:45: 80.75% completed...
2017-06-19 21:52:45: 85.80% completed...
2017-06-19 21:52:46: 90.85% completed...
2017-06-19 21:52:46: 95.89% completed...
2017-06-19 21:52:46: 100.00% completed.
2017-06-19 21:52:46: End of calculation.
2017-06-19 21:52:46: Total calculation time: 15795 ms.
done
computing RF ...
(standard_in) 2: syntax error
done
All done!
