pruning ...
done
computing MS ...
TreeCmp version 1.0-b291

Active options:
Type of the analysis:  one-to-all comparison mode (-r)
Metrics:
  1. MatchingSplit (ms)
Input file: ../gene_trees/randprune/kp.c1c2.gt.randprune.0.050.trees
Output file: ../results/kp.c1c2.randprune.0.050.MS.dat
Additional options:
P - Prune compared trees if needed (trees can have different leaf sets).
-----
2017-06-19 22:46:49: Start of scanning input file: ../gene_trees/randprune/kp.c1c2.gt.randprune.0.050.trees
2017-06-19 22:46:56: End of scanning input file: ../gene_trees/randprune/kp.c1c2.gt.randprune.0.050.trees
2017-06-19 22:46:56: 851 valid trees found in file: ../gene_trees/randprune/kp.c1c2.gt.randprune.0.050.trees
2017-06-19 22:46:56: Start of calculation...please wait...
2017-06-19 22:46:56: 0.00% completed...
2017-06-19 22:46:59: 5.05% completed...
2017-06-19 22:47:01: 10.11% completed...
2017-06-19 22:47:02: 15.16% completed...
2017-06-19 22:47:03: 20.21% completed...
2017-06-19 22:47:04: 25.26% completed...
2017-06-19 22:47:05: 30.32% completed...
2017-06-19 22:47:05: 35.37% completed...
2017-06-19 22:47:06: 40.42% completed...
2017-06-19 22:47:07: 45.48% completed...
2017-06-19 22:47:08: 50.53% completed...
2017-06-19 22:47:09: 55.58% completed...
2017-06-19 22:47:10: 60.63% completed...
2017-06-19 22:47:11: 65.69% completed...
2017-06-19 22:47:11: 70.74% completed...
2017-06-19 22:47:12: 75.79% completed...
2017-06-19 22:47:12: 80.85% completed...
2017-06-19 22:47:13: 85.90% completed...
2017-06-19 22:47:14: 90.95% completed...
2017-06-19 22:47:14: 96.00% completed...
2017-06-19 22:47:14: 100.00% completed.
2017-06-19 22:47:14: End of calculation.
2017-06-19 22:47:14: Total calculation time: 18500 ms.
done
computing RF ...
(standard_in) 2: syntax error
done
All done!
