pruning ...
done
computing MS ...
TreeCmp version 1.0-b291

Active options:
Type of the analysis:  one-to-all comparison mode (-r)
Metrics:
  1. MatchingSplit (ms)
Input file: ../gene_trees/randprune/kp.c1c2.gt.randprune.0.015.trees
Output file: ../results/kp.c1c2.randprune.0.015.MS.dat
Additional options:
P - Prune compared trees if needed (trees can have different leaf sets).
-----
2017-06-19 22:42:49: Start of scanning input file: ../gene_trees/randprune/kp.c1c2.gt.randprune.0.015.trees
2017-06-19 22:42:56: End of scanning input file: ../gene_trees/randprune/kp.c1c2.gt.randprune.0.015.trees
2017-06-19 22:42:56: 852 valid trees found in file: ../gene_trees/randprune/kp.c1c2.gt.randprune.0.015.trees
2017-06-19 22:42:56: Start of calculation...please wait...
2017-06-19 22:42:56: 0.00% completed...
2017-06-19 22:42:59: 5.05% completed...
2017-06-19 22:43:01: 10.09% completed...
2017-06-19 22:43:02: 15.14% completed...
2017-06-19 22:43:03: 20.19% completed...
2017-06-19 22:43:04: 25.23% completed...
2017-06-19 22:43:05: 30.28% completed...
2017-06-19 22:43:06: 35.33% completed...
2017-06-19 22:43:07: 40.38% completed...
2017-06-19 22:43:07: 45.42% completed...
2017-06-19 22:43:08: 50.47% completed...
2017-06-19 22:43:09: 55.52% completed...
2017-06-19 22:43:10: 60.56% completed...
2017-06-19 22:43:10: 65.61% completed...
2017-06-19 22:43:11: 70.66% completed...
2017-06-19 22:43:12: 75.70% completed...
2017-06-19 22:43:12: 80.75% completed...
2017-06-19 22:43:13: 85.80% completed...
2017-06-19 22:43:14: 90.85% completed...
2017-06-19 22:43:14: 95.89% completed...
2017-06-19 22:43:15: 100.00% completed.
2017-06-19 22:43:15: End of calculation.
2017-06-19 22:43:15: Total calculation time: 18439 ms.
done
computing RF ...
done
All done!
