pruning ...
Traceback (most recent call last):
  File "sampling.py", line 12, in <module>
    L1 = random.sample(L,k)
  File "/home/uym2/anaconda3/lib/python3.5/random.py", line 315, in sample
    raise ValueError("Sample larger than population")
ValueError: Sample larger than population
Usage: nw_prune [-h] <filename|-> <label> [label+]
Traceback (most recent call last):
  File "sampling.py", line 12, in <module>
    L1 = random.sample(L,k)
  File "/home/uym2/anaconda3/lib/python3.5/random.py", line 315, in sample
    raise ValueError("Sample larger than population")
ValueError: Sample larger than population
Usage: nw_prune [-h] <filename|-> <label> [label+]
Traceback (most recent call last):
  File "sampling.py", line 12, in <module>
    L1 = random.sample(L,k)
  File "/home/uym2/anaconda3/lib/python3.5/random.py", line 315, in sample
    raise ValueError("Sample larger than population")
ValueError: Sample larger than population
Usage: nw_prune [-h] <filename|-> <label> [label+]
done
computing MS ...
TreeCmp version 1.0-b291

Active options:
Type of the analysis:  one-to-all comparison mode (-r)
Metrics:
  1. MatchingSplit (ms)
Input file: ../gene_trees/randprune/kp.c1c2.gt.randprune.0.135.trees
Output file: ../results/kp.c1c2.randprune.0.135.MS.dat
Additional options:
P - Prune compared trees if needed (trees can have different leaf sets).
-----
2017-06-19 22:50:48: Start of scanning input file: ../gene_trees/randprune/kp.c1c2.gt.randprune.0.135.trees
2017-06-19 22:50:53: End of scanning input file: ../gene_trees/randprune/kp.c1c2.gt.randprune.0.135.trees
2017-06-19 22:50:53: 847 valid trees found in file: ../gene_trees/randprune/kp.c1c2.gt.randprune.0.135.trees
2017-06-19 22:50:53: Start of calculation...please wait...
2017-06-19 22:50:53: 0.00% completed...
2017-06-19 22:50:55: 5.08% completed...
2017-06-19 22:50:56: 10.15% completed...
2017-06-19 22:50:57: 15.23% completed...
2017-06-19 22:50:57: 20.31% completed...
2017-06-19 22:50:58: 25.38% completed...
2017-06-19 22:50:58: 30.46% completed...
2017-06-19 22:50:59: 35.54% completed...
2017-06-19 22:50:59: 40.61% completed...
2017-06-19 22:51:00: 45.69% completed...
2017-06-19 22:51:01: 50.77% completed...
2017-06-19 22:51:01: 55.84% completed...
2017-06-19 22:51:02: 60.92% completed...
2017-06-19 22:51:02: 66.00% completed...
2017-06-19 22:51:02: 71.07% completed...
2017-06-19 22:51:03: 76.15% completed...
2017-06-19 22:51:03: 81.23% completed...
2017-06-19 22:51:03: 86.30% completed...
2017-06-19 22:51:04: 91.38% completed...
2017-06-19 22:51:04: 96.46% completed...
2017-06-19 22:51:04: 100.00% completed.
2017-06-19 22:51:04: End of calculation.
2017-06-19 22:51:04: Total calculation time: 11261 ms.
done
computing RF ...
(standard_in) 2: syntax error
(standard_in) 2: syntax error
done
All done!
