extracting occupancy ...
grep: ../results/kp.c1c2.LBF.0.005.score.log: No such file or directory
done
computing MS ...
TreeCmp version 1.0-b291

Active options:
Type of the analysis:  one-to-all comparison mode (-r)
Metrics:
  1. MatchingSplit (ms)
Input file: ../gene_trees/LBF/kp.c1c2.gt.LBF.0.005.trees
Output file: ../results/kp.c1c2.0.005.MS.dat
Additional options:
P - Prune compared trees if needed (trees can have different leaf sets).
-----
2017-06-19 21:52:25: Start of scanning input file: ../gene_trees/LBF/kp.c1c2.gt.LBF.0.005.trees
2017-06-19 21:52:33: End of scanning input file: ../gene_trees/LBF/kp.c1c2.gt.LBF.0.005.trees
2017-06-19 21:52:33: 852 valid trees found in file: ../gene_trees/LBF/kp.c1c2.gt.LBF.0.005.trees
2017-06-19 21:52:33: Start of calculation...please wait...
2017-06-19 21:52:33: 0.00% completed...
2017-06-19 21:52:36: 5.05% completed...
2017-06-19 21:52:38: 10.09% completed...
2017-06-19 21:52:39: 15.14% completed...
2017-06-19 21:52:40: 20.19% completed...
2017-06-19 21:52:41: 25.23% completed...
2017-06-19 21:52:42: 30.28% completed...
2017-06-19 21:52:43: 35.33% completed...
2017-06-19 21:52:43: 40.38% completed...
2017-06-19 21:52:44: 45.42% completed...
2017-06-19 21:52:44: 50.47% completed...
2017-06-19 21:52:45: 55.52% completed...
2017-06-19 21:52:46: 60.56% completed...
2017-06-19 21:52:46: 65.61% completed...
2017-06-19 21:52:46: 70.66% completed...
2017-06-19 21:52:47: 75.70% completed...
2017-06-19 21:52:47: 80.75% completed...
2017-06-19 21:52:47: 85.80% completed...
2017-06-19 21:52:48: 90.85% completed...
2017-06-19 21:52:48: 95.89% completed...
2017-06-19 21:52:48: 100.00% completed.
2017-06-19 21:52:48: End of calculation.
2017-06-19 21:52:48: Total calculation time: 15513 ms.
done
computing RF ...
done
All done!
