extracting occupancy ...
grep: ../results/kp.c1c2.LBF.0.115.score.log: No such file or directory
done
computing MS ...
TreeCmp version 1.0-b291

Active options:
Type of the analysis:  one-to-all comparison mode (-r)
Metrics:
  1. MatchingSplit (ms)
Input file: ../gene_trees/LBF/kp.c1c2.gt.LBF.0.115.trees
Output file: ../results/kp.c1c2.0.115.MS.dat
Additional options:
P - Prune compared trees if needed (trees can have different leaf sets).
-----
2017-06-19 21:52:25: Start of scanning input file: ../gene_trees/LBF/kp.c1c2.gt.LBF.0.115.trees
2017-06-19 21:52:31: End of scanning input file: ../gene_trees/LBF/kp.c1c2.gt.LBF.0.115.trees
2017-06-19 21:52:31: 852 valid trees found in file: ../gene_trees/LBF/kp.c1c2.gt.LBF.0.115.trees
2017-06-19 21:52:31: Start of calculation...please wait...
2017-06-19 21:52:31: 0.00% completed...
2017-06-19 21:52:33: 5.05% completed...
2017-06-19 21:52:35: 10.09% completed...
2017-06-19 21:52:36: 15.14% completed...
2017-06-19 21:52:37: 20.19% completed...
2017-06-19 21:52:38: 25.23% completed...
2017-06-19 21:52:39: 30.28% completed...
2017-06-19 21:52:40: 35.33% completed...
2017-06-19 21:52:41: 40.38% completed...
2017-06-19 21:52:42: 45.42% completed...
2017-06-19 21:52:43: 50.47% completed...
2017-06-19 21:52:43: 55.52% completed...
2017-06-19 21:52:44: 60.56% completed...
2017-06-19 21:52:44: 65.61% completed...
2017-06-19 21:52:45: 70.66% completed...
2017-06-19 21:52:45: 75.70% completed...
2017-06-19 21:52:46: 80.75% completed...
2017-06-19 21:52:46: 85.80% completed...
2017-06-19 21:52:47: 90.85% completed...
2017-06-19 21:52:47: 95.89% completed...
2017-06-19 21:52:47: 100.00% completed.
2017-06-19 21:52:47: End of calculation.
2017-06-19 21:52:47: Total calculation time: 16416 ms.
done
computing RF ...
(standard_in) 2: syntax error
done
All done!
