pruning ...
done
computing MS ...
TreeCmp version 1.0-b291

Active options:
Type of the analysis:  one-to-all comparison mode (-r)
Metrics:
  1. MatchingSplit (ms)
Input file: ../gene_trees/randprune/kp.c1c2.gt.randprune.0.080.trees
Output file: ../results/kp.c1c2.randprune.0.080.MS.dat
Additional options:
P - Prune compared trees if needed (trees can have different leaf sets).
-----
2017-06-19 22:48:55: Start of scanning input file: ../gene_trees/randprune/kp.c1c2.gt.randprune.0.080.trees
2017-06-19 22:49:02: End of scanning input file: ../gene_trees/randprune/kp.c1c2.gt.randprune.0.080.trees
2017-06-19 22:49:02: 850 valid trees found in file: ../gene_trees/randprune/kp.c1c2.gt.randprune.0.080.trees
2017-06-19 22:49:02: Start of calculation...please wait...
2017-06-19 22:49:02: 0.00% completed...
2017-06-19 22:49:05: 5.06% completed...
2017-06-19 22:49:06: 10.12% completed...
2017-06-19 22:49:07: 15.18% completed...
2017-06-19 22:49:07: 20.24% completed...
2017-06-19 22:49:08: 25.29% completed...
2017-06-19 22:49:09: 30.35% completed...
2017-06-19 22:49:10: 35.41% completed...
2017-06-19 22:49:10: 40.47% completed...
2017-06-19 22:49:11: 45.53% completed...
2017-06-19 22:49:12: 50.59% completed...
2017-06-19 22:49:12: 55.65% completed...
2017-06-19 22:49:13: 60.71% completed...
2017-06-19 22:49:14: 65.76% completed...
2017-06-19 22:49:14: 70.82% completed...
2017-06-19 22:49:15: 75.88% completed...
2017-06-19 22:49:16: 80.94% completed...
2017-06-19 22:49:17: 86.00% completed...
2017-06-19 22:49:17: 91.06% completed...
2017-06-19 22:49:18: 96.12% completed...
2017-06-19 22:49:18: 100.00% completed.
2017-06-19 22:49:18: End of calculation.
2017-06-19 22:49:18: Total calculation time: 15942 ms.
done
computing RF ...
(standard_in) 2: syntax error
(standard_in) 2: syntax error
done
All done!
