pruning ...
done
computing MS ...
TreeCmp version 1.0-b291

Active options:
Type of the analysis:  one-to-all comparison mode (-r)
Metrics:
  1. MatchingSplit (ms)
Input file: ../gene_trees/randprune/kp.c1c2.gt.randprune.0.055.trees
Output file: ../results/kp.c1c2.randprune.0.055.MS.dat
Additional options:
P - Prune compared trees if needed (trees can have different leaf sets).
-----
2017-06-19 22:47:16: Start of scanning input file: ../gene_trees/randprune/kp.c1c2.gt.randprune.0.055.trees
2017-06-19 22:47:23: End of scanning input file: ../gene_trees/randprune/kp.c1c2.gt.randprune.0.055.trees
2017-06-19 22:47:23: 851 valid trees found in file: ../gene_trees/randprune/kp.c1c2.gt.randprune.0.055.trees
2017-06-19 22:47:23: Start of calculation...please wait...
2017-06-19 22:47:23: 0.00% completed...
2017-06-19 22:47:26: 5.05% completed...
2017-06-19 22:47:28: 10.11% completed...
2017-06-19 22:47:29: 15.16% completed...
2017-06-19 22:47:30: 20.21% completed...
2017-06-19 22:47:30: 25.26% completed...
2017-06-19 22:47:31: 30.32% completed...
2017-06-19 22:47:32: 35.37% completed...
2017-06-19 22:47:32: 40.42% completed...
2017-06-19 22:47:33: 45.48% completed...
2017-06-19 22:47:34: 50.53% completed...
2017-06-19 22:47:35: 55.58% completed...
2017-06-19 22:47:35: 60.63% completed...
2017-06-19 22:47:35: 65.69% completed...
2017-06-19 22:47:36: 70.74% completed...
2017-06-19 22:47:37: 75.79% completed...
2017-06-19 22:47:37: 80.85% completed...
2017-06-19 22:47:38: 85.90% completed...
2017-06-19 22:47:38: 90.95% completed...
2017-06-19 22:47:39: 96.00% completed...
2017-06-19 22:47:39: 100.00% completed.
2017-06-19 22:47:39: End of calculation.
2017-06-19 22:47:39: Total calculation time: 15968 ms.
done
computing RF ...
(standard_in) 2: syntax error
done
All done!
