compute MS
TreeCmp version 1.0-b291

Active options:
Type of the analysis:  one-to-all comparison mode (-r)
Metrics:
  1. MatchingSplit (ms)
Input file: ../gene_trees/rooted_pruning/kp.c1c2.gt.mixed.2.06.trees
Output file: ../results/kp.c1c2.mixed.2.06.MS.dat
Additional options:
P - Prune compared trees if needed (trees can have different leaf sets).
-----
2017-06-19 21:48:36: Start of scanning input file: ../gene_trees/rooted_pruning/kp.c1c2.gt.mixed.2.06.trees
2017-06-19 21:48:43: End of scanning input file: ../gene_trees/rooted_pruning/kp.c1c2.gt.mixed.2.06.trees
2017-06-19 21:48:43: 852 valid trees found in file: ../gene_trees/rooted_pruning/kp.c1c2.gt.mixed.2.06.trees
2017-06-19 21:48:43: Start of calculation...please wait...
2017-06-19 21:48:45: 0.00% completed...
2017-06-19 21:48:49: 5.05% completed...
2017-06-19 21:48:51: 10.09% completed...
2017-06-19 21:48:52: 15.14% completed...
2017-06-19 21:48:53: 20.19% completed...
2017-06-19 21:48:54: 25.23% completed...
2017-06-19 21:48:54: 30.28% completed...
2017-06-19 21:48:55: 35.33% completed...
2017-06-19 21:48:55: 40.38% completed...
2017-06-19 21:48:55: 45.42% completed...
2017-06-19 21:48:56: 50.47% completed...
2017-06-19 21:48:56: 55.52% completed...
2017-06-19 21:48:56: 60.56% completed...
2017-06-19 21:48:57: 65.61% completed...
2017-06-19 21:48:57: 70.66% completed...
2017-06-19 21:48:57: 75.70% completed...
2017-06-19 21:48:58: 80.75% completed...
2017-06-19 21:48:58: 85.80% completed...
2017-06-19 21:48:58: 90.85% completed...
2017-06-19 21:48:58: 95.89% completed...
2017-06-19 21:48:58: 100.00% completed.
2017-06-19 21:48:58: End of calculation.
2017-06-19 21:48:58: Total calculation time: 15071 ms.
compute RF
