computing MS ...
TreeCmp version 1.0-b291

Active options:
Type of the analysis:  one-to-all comparison mode (-r)
Metrics:
  1. MatchingSplit (ms)
Input file: ../gene_trees/LBF/mm.gt.LBF.0.020.trees
Output file: ../results/mm.0.020.MS.dat
Additional options:
P - Prune compared trees if needed (trees can have different leaf sets).
-----
2017-06-19 21:55:13: Start of scanning input file: ../gene_trees/LBF/mm.gt.LBF.0.020.trees
2017-06-19 21:55:17: End of scanning input file: ../gene_trees/LBF/mm.gt.LBF.0.020.trees
2017-06-19 21:55:17: 424 valid trees found in file: ../gene_trees/LBF/mm.gt.LBF.0.020.trees
2017-06-19 21:55:17: Start of calculation...please wait...
2017-06-19 21:55:17: 0.00% completed...
2017-06-19 21:55:20: 5.19% completed...
2017-06-19 21:55:21: 10.38% completed...
2017-06-19 21:55:22: 15.57% completed...
2017-06-19 21:55:23: 20.75% completed...
2017-06-19 21:55:24: 25.94% completed...
2017-06-19 21:55:24: 31.13% completed...
2017-06-19 21:55:25: 36.32% completed...
2017-06-19 21:55:25: 41.51% completed...
2017-06-19 21:55:26: 46.70% completed...
2017-06-19 21:55:27: 51.89% completed...
2017-06-19 21:55:27: 57.08% completed...
2017-06-19 21:55:27: 62.26% completed...
2017-06-19 21:55:28: 67.45% completed...
2017-06-19 21:55:28: 72.64% completed...
2017-06-19 21:55:29: 77.83% completed...
2017-06-19 21:55:29: 83.02% completed...
2017-06-19 21:55:30: 88.21% completed...
2017-06-19 21:55:30: 93.40% completed...
2017-06-19 21:55:30: 98.58% completed...
2017-06-19 21:55:30: 100.00% completed.
2017-06-19 21:55:30: End of calculation.
2017-06-19 21:55:31: Total calculation time: 12920 ms.
done
computing RF ...
done
All done!
