computing MS ...
TreeCmp version 1.0-b291

Active options:
Type of the analysis:  one-to-all comparison mode (-r)
Metrics:
  1. MatchingSplit (ms)
Input file: ../gene_trees/LBF/mm.gt.LBF.0.100.trees
Output file: ../results/mm.0.100.MS.dat
Additional options:
P - Prune compared trees if needed (trees can have different leaf sets).
-----
2017-06-19 21:55:13: Start of scanning input file: ../gene_trees/LBF/mm.gt.LBF.0.100.trees
2017-06-19 21:55:18: End of scanning input file: ../gene_trees/LBF/mm.gt.LBF.0.100.trees
2017-06-19 21:55:18: 424 valid trees found in file: ../gene_trees/LBF/mm.gt.LBF.0.100.trees
2017-06-19 21:55:18: Start of calculation...please wait...
2017-06-19 21:55:19: 0.00% completed...
2017-06-19 21:55:21: 5.19% completed...
2017-06-19 21:55:22: 10.38% completed...
2017-06-19 21:55:24: 15.57% completed...
2017-06-19 21:55:25: 20.75% completed...
2017-06-19 21:55:26: 25.94% completed...
2017-06-19 21:55:27: 31.13% completed...
2017-06-19 21:55:28: 36.32% completed...
2017-06-19 21:55:30: 41.51% completed...
2017-06-19 21:55:31: 46.70% completed...
2017-06-19 21:55:32: 51.89% completed...
2017-06-19 21:55:33: 57.08% completed...
2017-06-19 21:55:33: 62.26% completed...
2017-06-19 21:55:34: 67.45% completed...
2017-06-19 21:55:35: 72.64% completed...
2017-06-19 21:55:35: 77.83% completed...
2017-06-19 21:55:36: 83.02% completed...
2017-06-19 21:55:36: 88.21% completed...
2017-06-19 21:55:36: 93.40% completed...
2017-06-19 21:55:36: 98.58% completed...
2017-06-19 21:55:36: 100.00% completed.
2017-06-19 21:55:37: End of calculation.
2017-06-19 21:55:37: Total calculation time: 18020 ms.
done
computing RF ...
done
All done!
