computing MS ...
TreeCmp version 1.0-b291

Active options:
Type of the analysis:  one-to-all comparison mode (-r)
Metrics:
  1. MatchingSplit (ms)
Input file: ../gene_trees/LBF/mm.gt.LBF.0.005.trees
Output file: ../results/mm.0.005.MS.dat
Additional options:
P - Prune compared trees if needed (trees can have different leaf sets).
-----
2017-06-19 21:55:13: Start of scanning input file: ../gene_trees/LBF/mm.gt.LBF.0.005.trees
2017-06-19 21:55:20: End of scanning input file: ../gene_trees/LBF/mm.gt.LBF.0.005.trees
2017-06-19 21:55:20: 848 valid trees found in file: ../gene_trees/LBF/mm.gt.LBF.0.005.trees
2017-06-19 21:55:20: Start of calculation...please wait...
2017-06-19 21:55:21: 0.00% completed...
2017-06-19 21:55:24: 5.07% completed...
2017-06-19 21:55:27: 10.14% completed...
2017-06-19 21:55:28: 15.21% completed...
2017-06-19 21:55:29: 20.28% completed...
2017-06-19 21:55:30: 25.35% completed...
2017-06-19 21:55:31: 30.42% completed...
2017-06-19 21:55:32: 35.50% completed...
2017-06-19 21:55:32: 40.57% completed...
2017-06-19 21:55:33: 45.64% completed...
2017-06-19 21:55:34: 50.71% completed...
2017-06-19 21:55:34: 55.78% completed...
2017-06-19 21:55:35: 60.85% completed...
2017-06-19 21:55:36: 65.92% completed...
2017-06-19 21:55:36: 70.99% completed...
2017-06-19 21:55:37: 76.06% completed...
2017-06-19 21:55:37: 81.13% completed...
2017-06-19 21:55:38: 86.20% completed...
2017-06-19 21:55:38: 91.27% completed...
2017-06-19 21:55:38: 96.34% completed...
2017-06-19 21:55:38: 100.00% completed.
2017-06-19 21:55:39: End of calculation.
2017-06-19 21:55:39: Total calculation time: 17949 ms.
done
computing RF ...
done
All done!
