computing MS ...
TreeCmp version 1.0-b291

Active options:
Type of the analysis:  one-to-all comparison mode (-r)
Metrics:
  1. MatchingSplit (ms)
Input file: ../gene_trees/LBF/mm.gt.LBF.0.010.trees
Output file: ../results/mm.0.010.MS.dat
Additional options:
P - Prune compared trees if needed (trees can have different leaf sets).
-----
2017-06-19 21:55:13: Start of scanning input file: ../gene_trees/LBF/mm.gt.LBF.0.010.trees
2017-06-19 21:55:19: End of scanning input file: ../gene_trees/LBF/mm.gt.LBF.0.010.trees
2017-06-19 21:55:19: 424 valid trees found in file: ../gene_trees/LBF/mm.gt.LBF.0.010.trees
2017-06-19 21:55:19: Start of calculation...please wait...
2017-06-19 21:55:19: 0.00% completed...
2017-06-19 21:55:22: 5.19% completed...
2017-06-19 21:55:23: 10.38% completed...
2017-06-19 21:55:25: 15.57% completed...
2017-06-19 21:55:26: 20.75% completed...
2017-06-19 21:55:27: 25.94% completed...
2017-06-19 21:55:28: 31.13% completed...
2017-06-19 21:55:30: 36.32% completed...
2017-06-19 21:55:31: 41.51% completed...
2017-06-19 21:55:32: 46.70% completed...
2017-06-19 21:55:33: 51.89% completed...
2017-06-19 21:55:34: 57.08% completed...
2017-06-19 21:55:35: 62.26% completed...
2017-06-19 21:55:35: 67.45% completed...
2017-06-19 21:55:36: 72.64% completed...
2017-06-19 21:55:37: 77.83% completed...
2017-06-19 21:55:37: 83.02% completed...
2017-06-19 21:55:38: 88.21% completed...
2017-06-19 21:55:38: 93.40% completed...
2017-06-19 21:55:39: 98.58% completed...
2017-06-19 21:55:39: 100.00% completed.
2017-06-19 21:55:39: End of calculation.
2017-06-19 21:55:39: Total calculation time: 19946 ms.
done
computing RF ...
done
All done!
