computing MS ...
TreeCmp version 1.0-b291

Active options:
Type of the analysis:  one-to-all comparison mode (-r)
Metrics:
  1. MatchingSplit (ms)
Input file: ../gene_trees/LBF/mm.gt.LBF.0.045.trees
Output file: ../results/mm.0.045.MS.dat
Additional options:
P - Prune compared trees if needed (trees can have different leaf sets).
-----
2017-06-19 21:55:12: Start of scanning input file: ../gene_trees/LBF/mm.gt.LBF.0.045.trees
2017-06-19 21:55:17: End of scanning input file: ../gene_trees/LBF/mm.gt.LBF.0.045.trees
2017-06-19 21:55:17: 424 valid trees found in file: ../gene_trees/LBF/mm.gt.LBF.0.045.trees
2017-06-19 21:55:17: Start of calculation...please wait...
2017-06-19 21:55:18: 0.00% completed...
2017-06-19 21:55:20: 5.19% completed...
2017-06-19 21:55:22: 10.38% completed...
2017-06-19 21:55:23: 15.57% completed...
2017-06-19 21:55:24: 20.75% completed...
2017-06-19 21:55:25: 25.94% completed...
2017-06-19 21:55:26: 31.13% completed...
2017-06-19 21:55:26: 36.32% completed...
2017-06-19 21:55:27: 41.51% completed...
2017-06-19 21:55:27: 46.70% completed...
2017-06-19 21:55:28: 51.89% completed...
2017-06-19 21:55:29: 57.08% completed...
2017-06-19 21:55:29: 62.26% completed...
2017-06-19 21:55:29: 67.45% completed...
2017-06-19 21:55:30: 72.64% completed...
2017-06-19 21:55:30: 77.83% completed...
2017-06-19 21:55:31: 83.02% completed...
2017-06-19 21:55:31: 88.21% completed...
2017-06-19 21:55:32: 93.40% completed...
2017-06-19 21:55:32: 98.58% completed...
2017-06-19 21:55:32: 100.00% completed.
2017-06-19 21:55:32: End of calculation.
2017-06-19 21:55:32: Total calculation time: 14689 ms.
done
computing RF ...
done
All done!
