computing MS ...
TreeCmp version 1.0-b291

Active options:
Type of the analysis:  one-to-all comparison mode (-r)
Metrics:
  1. MatchingSplit (ms)
Input file: ../gene_trees/LBF/mm.gt.LBF.0.080.trees
Output file: ../results/mm.0.080.MS.dat
Additional options:
P - Prune compared trees if needed (trees can have different leaf sets).
-----
2017-06-19 21:55:13: Start of scanning input file: ../gene_trees/LBF/mm.gt.LBF.0.080.trees
2017-06-19 21:55:18: End of scanning input file: ../gene_trees/LBF/mm.gt.LBF.0.080.trees
2017-06-19 21:55:18: 424 valid trees found in file: ../gene_trees/LBF/mm.gt.LBF.0.080.trees
2017-06-19 21:55:18: Start of calculation...please wait...
2017-06-19 21:55:18: 0.00% completed...
2017-06-19 21:55:20: 5.19% completed...
2017-06-19 21:55:21: 10.38% completed...
2017-06-19 21:55:22: 15.57% completed...
2017-06-19 21:55:23: 20.75% completed...
2017-06-19 21:55:24: 25.94% completed...
2017-06-19 21:55:25: 31.13% completed...
2017-06-19 21:55:26: 36.32% completed...
2017-06-19 21:55:28: 41.51% completed...
2017-06-19 21:55:29: 46.70% completed...
2017-06-19 21:55:30: 51.89% completed...
2017-06-19 21:55:31: 57.08% completed...
2017-06-19 21:55:32: 62.26% completed...
2017-06-19 21:55:32: 67.45% completed...
2017-06-19 21:55:33: 72.64% completed...
2017-06-19 21:55:33: 77.83% completed...
2017-06-19 21:55:34: 83.02% completed...
2017-06-19 21:55:34: 88.21% completed...
2017-06-19 21:55:34: 93.40% completed...
2017-06-19 21:55:34: 98.58% completed...
2017-06-19 21:55:35: 100.00% completed.
2017-06-19 21:55:35: End of calculation.
2017-06-19 21:55:35: Total calculation time: 17047 ms.
done
computing RF ...
done
All done!
