computing MS ...
TreeCmp version 1.0-b291

Active options:
Type of the analysis:  one-to-all comparison mode (-r)
Metrics:
  1. MatchingSplit (ms)
Input file: ../gene_trees/LBF/mm.gt.LBF.0.055.trees
Output file: ../results/mm.0.055.MS.dat
Additional options:
P - Prune compared trees if needed (trees can have different leaf sets).
-----
2017-06-19 21:55:13: Start of scanning input file: ../gene_trees/LBF/mm.gt.LBF.0.055.trees
2017-06-19 21:55:17: End of scanning input file: ../gene_trees/LBF/mm.gt.LBF.0.055.trees
2017-06-19 21:55:17: 424 valid trees found in file: ../gene_trees/LBF/mm.gt.LBF.0.055.trees
2017-06-19 21:55:17: Start of calculation...please wait...
2017-06-19 21:55:18: 0.00% completed...
2017-06-19 21:55:20: 5.19% completed...
2017-06-19 21:55:21: 10.38% completed...
2017-06-19 21:55:22: 15.57% completed...
2017-06-19 21:55:23: 20.75% completed...
2017-06-19 21:55:25: 25.94% completed...
2017-06-19 21:55:26: 31.13% completed...
2017-06-19 21:55:27: 36.32% completed...
2017-06-19 21:55:28: 41.51% completed...
2017-06-19 21:55:29: 46.70% completed...
2017-06-19 21:55:31: 51.89% completed...
2017-06-19 21:55:32: 57.08% completed...
2017-06-19 21:55:33: 62.26% completed...
2017-06-19 21:55:34: 67.45% completed...
2017-06-19 21:55:35: 72.64% completed...
2017-06-19 21:55:35: 77.83% completed...
2017-06-19 21:55:36: 83.02% completed...
2017-06-19 21:55:37: 88.21% completed...
2017-06-19 21:55:37: 93.40% completed...
2017-06-19 21:55:37: 98.58% completed...
2017-06-19 21:55:37: 100.00% completed.
2017-06-19 21:55:38: End of calculation.
2017-06-19 21:55:38: Total calculation time: 19970 ms.
done
computing RF ...
done
All done!
