computing MS ...
TreeCmp version 1.0-b291

Active options:
Type of the analysis:  one-to-all comparison mode (-r)
Metrics:
  1. MatchingSplit (ms)
Input file: ../gene_trees/randprune/mm.gt.randprune.0.095.trees
Output file: ../results/mm.randprune.0.095.MS.dat
Additional options:
P - Prune compared trees if needed (trees can have different leaf sets).
-----
2017-06-19 22:44:06: Start of scanning input file: ../gene_trees/randprune/mm.gt.randprune.0.095.trees
2017-06-19 22:44:12: End of scanning input file: ../gene_trees/randprune/mm.gt.randprune.0.095.trees
2017-06-19 22:44:12: 424 valid trees found in file: ../gene_trees/randprune/mm.gt.randprune.0.095.trees
2017-06-19 22:44:12: Start of calculation...please wait...
2017-06-19 22:44:12: 0.00% completed...
2017-06-19 22:44:14: 5.19% completed...
2017-06-19 22:44:15: 10.38% completed...
2017-06-19 22:44:16: 15.57% completed...
2017-06-19 22:44:17: 20.75% completed...
2017-06-19 22:44:17: 25.94% completed...
2017-06-19 22:44:17: 31.13% completed...
2017-06-19 22:44:18: 36.32% completed...
2017-06-19 22:44:18: 41.51% completed...
2017-06-19 22:44:19: 46.70% completed...
2017-06-19 22:44:19: 51.89% completed...
2017-06-19 22:44:20: 57.08% completed...
2017-06-19 22:44:20: 62.26% completed...
2017-06-19 22:44:20: 67.45% completed...
2017-06-19 22:44:21: 72.64% completed...
2017-06-19 22:44:21: 77.83% completed...
2017-06-19 22:44:22: 83.02% completed...
2017-06-19 22:44:22: 88.21% completed...
2017-06-19 22:44:22: 93.40% completed...
2017-06-19 22:44:22: 98.58% completed...
2017-06-19 22:44:22: 100.00% completed.
2017-06-19 22:44:22: End of calculation.
2017-06-19 22:44:22: Total calculation time: 10336 ms.
done
computing RF ...
done
All done!
