TreeCmp version 1.0-b291

Active options:
Type of the analysis:  one-to-all comparison mode (-r)
Metrics:
  1. MatchingSplit (ms)
Input file: ../gene_trees/rogueNarok/mm.RnR.40.trees
Output file: ../results/mm.RnR.40.MS.dat
Additional options:
P - Prune compared trees if needed (trees can have different leaf sets).
-----
2017-06-20 17:40:44: Start of scanning input file: ../gene_trees/rogueNarok/mm.RnR.40.trees
2017-06-20 17:40:48: End of scanning input file: ../gene_trees/rogueNarok/mm.RnR.40.trees
2017-06-20 17:40:48: 424 valid trees found in file: ../gene_trees/rogueNarok/mm.RnR.40.trees
2017-06-20 17:40:48: Start of calculation...please wait...
2017-06-20 17:40:48: 0.00% completed...
2017-06-20 17:40:49: 5.19% completed...
2017-06-20 17:40:50: 10.38% completed...
2017-06-20 17:40:51: 15.57% completed...
2017-06-20 17:40:51: 20.75% completed...
2017-06-20 17:40:52: 25.94% completed...
2017-06-20 17:40:53: 31.13% completed...
2017-06-20 17:40:53: 36.32% completed...
2017-06-20 17:40:54: 41.51% completed...
2017-06-20 17:40:54: 46.70% completed...
2017-06-20 17:40:55: 51.89% completed...
2017-06-20 17:40:55: 57.08% completed...
2017-06-20 17:40:56: 62.26% completed...
2017-06-20 17:40:57: 67.45% completed...
2017-06-20 17:40:57: 72.64% completed...
2017-06-20 17:40:57: 77.83% completed...
2017-06-20 17:40:57: 83.02% completed...
2017-06-20 17:40:57: 88.21% completed...
2017-06-20 17:40:58: 93.40% completed...
2017-06-20 17:40:58: 98.58% completed...
2017-06-20 17:40:58: 100.00% completed.
2017-06-20 17:40:58: End of calculation.
2017-06-20 17:40:58: Total calculation time: 9641 ms.
