compute MS
TreeCmp version 1.0-b291

Active options:
Type of the analysis:  one-to-all comparison mode (-r)
Metrics:
  1. MatchingSplit (ms)
Input file: ../gene_trees/rooted_pruning/mm.gt.GAL.2.06.trees
Output file: ../results/mm.GAL.2.06.MS.dat
Additional options:
P - Prune compared trees if needed (trees can have different leaf sets).
-----
2017-06-19 21:55:16: Start of scanning input file: ../gene_trees/rooted_pruning/mm.gt.GAL.2.06.trees
2017-06-19 21:55:22: End of scanning input file: ../gene_trees/rooted_pruning/mm.gt.GAL.2.06.trees
2017-06-19 21:55:22: 424 valid trees found in file: ../gene_trees/rooted_pruning/mm.gt.GAL.2.06.trees
2017-06-19 21:55:23: Start of calculation...please wait...
2017-06-19 21:55:23: 0.00% completed...
2017-06-19 21:55:26: 5.19% completed...
2017-06-19 21:55:27: 10.38% completed...
2017-06-19 21:55:29: 15.57% completed...
2017-06-19 21:55:30: 20.75% completed...
2017-06-19 21:55:31: 25.94% completed...
2017-06-19 21:55:32: 31.13% completed...
2017-06-19 21:55:33: 36.32% completed...
2017-06-19 21:55:34: 41.51% completed...
2017-06-19 21:55:35: 46.70% completed...
2017-06-19 21:55:36: 51.89% completed...
2017-06-19 21:55:37: 57.08% completed...
2017-06-19 21:55:37: 62.26% completed...
2017-06-19 21:55:38: 67.45% completed...
2017-06-19 21:55:38: 72.64% completed...
2017-06-19 21:55:39: 77.83% completed...
2017-06-19 21:55:39: 83.02% completed...
2017-06-19 21:55:40: 88.21% completed...
2017-06-19 21:55:40: 93.40% completed...
2017-06-19 21:55:40: 98.58% completed...
2017-06-19 21:55:40: 100.00% completed.
2017-06-19 21:55:40: End of calculation.
2017-06-19 21:55:40: Total calculation time: 17425 ms.
compute RF
