computing MS ...
TreeCmp version 1.0-b291

Active options:
Type of the analysis:  one-to-all comparison mode (-r)
Metrics:
  1. MatchingSplit (ms)
Input file: ../gene_trees/randprune/mm.gt.randprune.0.025.trees
Output file: ../results/mm.randprune.0.025.MS.dat
Additional options:
P - Prune compared trees if needed (trees can have different leaf sets).
-----
2017-06-19 22:44:06: Start of scanning input file: ../gene_trees/randprune/mm.gt.randprune.0.025.trees
2017-06-19 22:44:11: End of scanning input file: ../gene_trees/randprune/mm.gt.randprune.0.025.trees
2017-06-19 22:44:11: 424 valid trees found in file: ../gene_trees/randprune/mm.gt.randprune.0.025.trees
2017-06-19 22:44:11: Start of calculation...please wait...
2017-06-19 22:44:11: 0.00% completed...
2017-06-19 22:44:13: 5.19% completed...
2017-06-19 22:44:13: 10.38% completed...
2017-06-19 22:44:14: 15.57% completed...
2017-06-19 22:44:15: 20.75% completed...
2017-06-19 22:44:15: 25.94% completed...
2017-06-19 22:44:16: 31.13% completed...
2017-06-19 22:44:16: 36.32% completed...
2017-06-19 22:44:17: 41.51% completed...
2017-06-19 22:44:17: 46.70% completed...
2017-06-19 22:44:17: 51.89% completed...
2017-06-19 22:44:18: 57.08% completed...
2017-06-19 22:44:18: 62.26% completed...
2017-06-19 22:44:18: 67.45% completed...
2017-06-19 22:44:19: 72.64% completed...
2017-06-19 22:44:19: 77.83% completed...
2017-06-19 22:44:19: 83.02% completed...
2017-06-19 22:44:20: 88.21% completed...
2017-06-19 22:44:20: 93.40% completed...
2017-06-19 22:44:21: 98.58% completed...
2017-06-19 22:44:21: 100.00% completed.
2017-06-19 22:44:21: End of calculation.
2017-06-19 22:44:21: Total calculation time: 9762 ms.
done
computing RF ...
done
All done!
