compute MS
TreeCmp version 1.0-b291

Active options:
Type of the analysis:  one-to-all comparison mode (-r)
Metrics:
  1. MatchingSplit (ms)
Input file: ../gene_trees/rooted_pruning/mm.gt.GAL.3.20.trees
Output file: ../results/mm.GAL.3.20.MS.dat
Additional options:
P - Prune compared trees if needed (trees can have different leaf sets).
-----
2017-06-19 21:55:15: Start of scanning input file: ../gene_trees/rooted_pruning/mm.gt.GAL.3.20.trees
2017-06-19 21:55:20: End of scanning input file: ../gene_trees/rooted_pruning/mm.gt.GAL.3.20.trees
2017-06-19 21:55:20: 424 valid trees found in file: ../gene_trees/rooted_pruning/mm.gt.GAL.3.20.trees
2017-06-19 21:55:21: Start of calculation...please wait...
2017-06-19 21:55:21: 0.00% completed...
2017-06-19 21:55:24: 5.19% completed...
2017-06-19 21:55:25: 10.38% completed...
2017-06-19 21:55:26: 15.57% completed...
2017-06-19 21:55:28: 20.75% completed...
2017-06-19 21:55:28: 25.94% completed...
2017-06-19 21:55:29: 31.13% completed...
2017-06-19 21:55:30: 36.32% completed...
2017-06-19 21:55:30: 41.51% completed...
2017-06-19 21:55:31: 46.70% completed...
2017-06-19 21:55:31: 51.89% completed...
2017-06-19 21:55:32: 57.08% completed...
2017-06-19 21:55:32: 62.26% completed...
2017-06-19 21:55:33: 67.45% completed...
2017-06-19 21:55:33: 72.64% completed...
2017-06-19 21:55:34: 77.83% completed...
2017-06-19 21:55:34: 83.02% completed...
2017-06-19 21:55:34: 88.21% completed...
2017-06-19 21:55:35: 93.40% completed...
2017-06-19 21:55:35: 98.58% completed...
2017-06-19 21:55:35: 100.00% completed.
2017-06-19 21:55:35: End of calculation.
2017-06-19 21:55:35: Total calculation time: 14636 ms.
compute RF
