compute MS
TreeCmp version 1.0-b291

Active options:
Type of the analysis:  one-to-all comparison mode (-r)
Metrics:
  1. MatchingSplit (ms)
Input file: ../gene_trees/rooted_pruning/mm.gt.GAL.2.66.trees
Output file: ../results/mm.GAL.2.66.MS.dat
Additional options:
P - Prune compared trees if needed (trees can have different leaf sets).
-----
2017-06-19 21:55:14: Start of scanning input file: ../gene_trees/rooted_pruning/mm.gt.GAL.2.66.trees
2017-06-19 21:55:19: End of scanning input file: ../gene_trees/rooted_pruning/mm.gt.GAL.2.66.trees
2017-06-19 21:55:19: 424 valid trees found in file: ../gene_trees/rooted_pruning/mm.gt.GAL.2.66.trees
2017-06-19 21:55:19: Start of calculation...please wait...
2017-06-19 21:55:19: 0.00% completed...
2017-06-19 21:55:21: 5.19% completed...
2017-06-19 21:55:22: 10.38% completed...
2017-06-19 21:55:23: 15.57% completed...
2017-06-19 21:55:24: 20.75% completed...
2017-06-19 21:55:26: 25.94% completed...
2017-06-19 21:55:27: 31.13% completed...
2017-06-19 21:55:28: 36.32% completed...
2017-06-19 21:55:29: 41.51% completed...
2017-06-19 21:55:29: 46.70% completed...
2017-06-19 21:55:31: 51.89% completed...
2017-06-19 21:55:31: 57.08% completed...
2017-06-19 21:55:32: 62.26% completed...
2017-06-19 21:55:33: 67.45% completed...
2017-06-19 21:55:34: 72.64% completed...
2017-06-19 21:55:35: 77.83% completed...
2017-06-19 21:55:35: 83.02% completed...
2017-06-19 21:55:36: 88.21% completed...
2017-06-19 21:55:36: 93.40% completed...
2017-06-19 21:55:37: 98.58% completed...
2017-06-19 21:55:37: 100.00% completed.
2017-06-19 21:55:37: End of calculation.
2017-06-19 21:55:37: Total calculation time: 18247 ms.
compute RF
