computing MS ...
TreeCmp version 1.0-b291

Active options:
Type of the analysis:  one-to-all comparison mode (-r)
Metrics:
  1. MatchingSplit (ms)
Input file: ../gene_trees/randprune/mm.gt.randprune.0.080.trees
Output file: ../results/mm.randprune.0.080.MS.dat
Additional options:
P - Prune compared trees if needed (trees can have different leaf sets).
-----
2017-06-19 22:44:07: Start of scanning input file: ../gene_trees/randprune/mm.gt.randprune.0.080.trees
2017-06-19 22:44:13: End of scanning input file: ../gene_trees/randprune/mm.gt.randprune.0.080.trees
2017-06-19 22:44:13: 424 valid trees found in file: ../gene_trees/randprune/mm.gt.randprune.0.080.trees
2017-06-19 22:44:13: Start of calculation...please wait...
2017-06-19 22:44:14: 0.00% completed...
2017-06-19 22:44:16: 5.19% completed...
2017-06-19 22:44:17: 10.38% completed...
2017-06-19 22:44:18: 15.57% completed...
2017-06-19 22:44:19: 20.75% completed...
2017-06-19 22:44:20: 25.94% completed...
2017-06-19 22:44:21: 31.13% completed...
2017-06-19 22:44:21: 36.32% completed...
2017-06-19 22:44:22: 41.51% completed...
2017-06-19 22:44:23: 46.70% completed...
2017-06-19 22:44:24: 51.89% completed...
2017-06-19 22:44:24: 57.08% completed...
2017-06-19 22:44:25: 62.26% completed...
2017-06-19 22:44:25: 67.45% completed...
2017-06-19 22:44:26: 72.64% completed...
2017-06-19 22:44:26: 77.83% completed...
2017-06-19 22:44:27: 83.02% completed...
2017-06-19 22:44:27: 88.21% completed...
2017-06-19 22:44:28: 93.40% completed...
2017-06-19 22:44:28: 98.58% completed...
2017-06-19 22:44:28: 100.00% completed.
2017-06-19 22:44:28: End of calculation.
2017-06-19 22:44:28: Total calculation time: 14627 ms.
done
computing RF ...
done
All done!
