TreeCmp version 1.0-b291

Active options:
Type of the analysis:  one-to-all comparison mode (-r)
Metrics:
  1. MatchingSplit (ms)
Input file: ../gene_trees/rogueNarok/mm.RnR.65.trees
Output file: ../results/mm.RnR.65.MS.dat
Additional options:
P - Prune compared trees if needed (trees can have different leaf sets).
-----
2017-06-20 17:40:41: Start of scanning input file: ../gene_trees/rogueNarok/mm.RnR.65.trees
2017-06-20 17:40:45: End of scanning input file: ../gene_trees/rogueNarok/mm.RnR.65.trees
2017-06-20 17:40:45: 424 valid trees found in file: ../gene_trees/rogueNarok/mm.RnR.65.trees
2017-06-20 17:40:45: Start of calculation...please wait...
2017-06-20 17:40:45: 0.00% completed...
2017-06-20 17:40:47: 5.19% completed...
2017-06-20 17:40:48: 10.38% completed...
2017-06-20 17:40:48: 15.57% completed...
2017-06-20 17:40:49: 20.75% completed...
2017-06-20 17:40:49: 25.94% completed...
2017-06-20 17:40:49: 31.13% completed...
2017-06-20 17:40:50: 36.32% completed...
2017-06-20 17:40:50: 41.51% completed...
2017-06-20 17:40:50: 46.70% completed...
2017-06-20 17:40:51: 51.89% completed...
2017-06-20 17:40:51: 57.08% completed...
2017-06-20 17:40:51: 62.26% completed...
2017-06-20 17:40:51: 67.45% completed...
2017-06-20 17:40:52: 72.64% completed...
2017-06-20 17:40:52: 77.83% completed...
2017-06-20 17:40:52: 83.02% completed...
2017-06-20 17:40:52: 88.21% completed...
2017-06-20 17:40:53: 93.40% completed...
2017-06-20 17:40:53: 98.58% completed...
2017-06-20 17:40:53: 100.00% completed.
2017-06-20 17:40:53: End of calculation.
2017-06-20 17:40:53: Total calculation time: 7742 ms.
