TreeCmp version 1.0-b291

Active options:
Type of the analysis:  one-to-all comparison mode (-r)
Metrics:
  1. MatchingSplit (ms)
Input file: ../gene_trees/rogueNarok/mm.RnR.50.trees
Output file: ../results/mm.RnR.50.MS.dat
Additional options:
P - Prune compared trees if needed (trees can have different leaf sets).
-----
2017-06-20 17:40:43: Start of scanning input file: ../gene_trees/rogueNarok/mm.RnR.50.trees
2017-06-20 17:40:47: End of scanning input file: ../gene_trees/rogueNarok/mm.RnR.50.trees
2017-06-20 17:40:47: 424 valid trees found in file: ../gene_trees/rogueNarok/mm.RnR.50.trees
2017-06-20 17:40:47: Start of calculation...please wait...
2017-06-20 17:40:47: 0.00% completed...
2017-06-20 17:40:49: 5.19% completed...
2017-06-20 17:40:50: 10.38% completed...
2017-06-20 17:40:50: 15.57% completed...
2017-06-20 17:40:51: 20.75% completed...
2017-06-20 17:40:51: 25.94% completed...
2017-06-20 17:40:52: 31.13% completed...
2017-06-20 17:40:52: 36.32% completed...
2017-06-20 17:40:53: 41.51% completed...
2017-06-20 17:40:53: 46.70% completed...
2017-06-20 17:40:54: 51.89% completed...
2017-06-20 17:40:54: 57.08% completed...
2017-06-20 17:40:55: 62.26% completed...
2017-06-20 17:40:55: 67.45% completed...
2017-06-20 17:40:55: 72.64% completed...
2017-06-20 17:40:56: 77.83% completed...
2017-06-20 17:40:56: 83.02% completed...
2017-06-20 17:40:56: 88.21% completed...
2017-06-20 17:40:56: 93.40% completed...
2017-06-20 17:40:56: 98.58% completed...
2017-06-20 17:40:56: 100.00% completed.
2017-06-20 17:40:56: End of calculation.
2017-06-20 17:40:56: Total calculation time: 8623 ms.
