TreeCmp version 1.0-b291

Active options:
Type of the analysis:  one-to-all comparison mode (-r)
Metrics:
  1. MatchingSplit (ms)
Input file: ../gene_trees/rogueNarok/mm.RnR.45.trees
Output file: ../results/mm.RnR.45.MS.dat
Additional options:
P - Prune compared trees if needed (trees can have different leaf sets).
-----
2017-06-20 17:40:41: Start of scanning input file: ../gene_trees/rogueNarok/mm.RnR.45.trees
2017-06-20 17:40:45: End of scanning input file: ../gene_trees/rogueNarok/mm.RnR.45.trees
2017-06-20 17:40:45: 424 valid trees found in file: ../gene_trees/rogueNarok/mm.RnR.45.trees
2017-06-20 17:40:46: Start of calculation...please wait...
2017-06-20 17:40:46: 0.00% completed...
2017-06-20 17:40:47: 5.19% completed...
2017-06-20 17:40:48: 10.38% completed...
2017-06-20 17:40:48: 15.57% completed...
2017-06-20 17:40:49: 20.75% completed...
2017-06-20 17:40:50: 25.94% completed...
2017-06-20 17:40:50: 31.13% completed...
2017-06-20 17:40:51: 36.32% completed...
2017-06-20 17:40:51: 41.51% completed...
2017-06-20 17:40:51: 46.70% completed...
2017-06-20 17:40:52: 51.89% completed...
2017-06-20 17:40:52: 57.08% completed...
2017-06-20 17:40:52: 62.26% completed...
2017-06-20 17:40:53: 67.45% completed...
2017-06-20 17:40:53: 72.64% completed...
2017-06-20 17:40:53: 77.83% completed...
2017-06-20 17:40:53: 83.02% completed...
2017-06-20 17:40:53: 88.21% completed...
2017-06-20 17:40:54: 93.40% completed...
2017-06-20 17:40:54: 98.58% completed...
2017-06-20 17:40:54: 100.00% completed.
2017-06-20 17:40:54: End of calculation.
2017-06-20 17:40:54: Total calculation time: 8455 ms.
