TreeCmp version 1.0-b291

Active options:
Type of the analysis:  one-to-all comparison mode (-r)
Metrics:
  1. MatchingSplit (ms)
Input file: ../gene_trees/rogueNarok/xen.can.RnR.55.trees
Output file: ../results/xen.can.RnR.55.MS.dat
Additional options:
P - Prune compared trees if needed (trees can have different leaf sets).
-----
2017-06-20 11:28:21: Start of scanning input file: ../gene_trees/rogueNarok/xen.can.RnR.55.trees
2017-06-20 11:28:22: End of scanning input file: ../gene_trees/rogueNarok/xen.can.RnR.55.trees
2017-06-20 11:28:22: 212 valid trees found in file: ../gene_trees/rogueNarok/xen.can.RnR.55.trees
2017-06-20 11:28:22: Start of calculation...please wait...
2017-06-20 11:28:22: 0.00% completed...
2017-06-20 11:28:23: 5.19% completed...
2017-06-20 11:28:23: 10.38% completed...
2017-06-20 11:28:24: 15.57% completed...
2017-06-20 11:28:24: 20.75% completed...
2017-06-20 11:28:24: 25.94% completed...
2017-06-20 11:28:24: 31.13% completed...
2017-06-20 11:28:24: 36.32% completed...
2017-06-20 11:28:24: 41.51% completed...
2017-06-20 11:28:25: 46.70% completed...
2017-06-20 11:28:25: 51.89% completed...
2017-06-20 11:28:25: 57.08% completed...
2017-06-20 11:28:25: 62.26% completed...
2017-06-20 11:28:25: 67.45% completed...
2017-06-20 11:28:26: 72.64% completed...
2017-06-20 11:28:26: 77.83% completed...
2017-06-20 11:28:26: 83.02% completed...
2017-06-20 11:28:26: 88.21% completed...
2017-06-20 11:28:26: 93.40% completed...
2017-06-20 11:28:26: 98.58% completed...
2017-06-20 11:28:26: 100.00% completed.
2017-06-20 11:28:26: End of calculation.
2017-06-20 11:28:26: Total calculation time: 4374 ms.
