pruning ...
done
computing MS ...
TreeCmp version 1.0-b291

Active options:
Type of the analysis:  one-to-all comparison mode (-r)
Metrics:
  1. MatchingSplit (ms)
Input file: ../gene_trees/randprune/xen.rs.gt.randprune.0.140.trees
Output file: ../results/xen.rs.randprune.0.140.MS.dat
Additional options:
P - Prune compared trees if needed (trees can have different leaf sets).
-----
2017-06-19 23:28:59: Start of scanning input file: ../gene_trees/randprune/xen.rs.gt.randprune.0.140.trees
2017-06-19 23:29:00: End of scanning input file: ../gene_trees/randprune/xen.rs.gt.randprune.0.140.trees
2017-06-19 23:29:00: 393 valid trees found in file: ../gene_trees/randprune/xen.rs.gt.randprune.0.140.trees
2017-06-19 23:29:00: Start of calculation...please wait...
2017-06-19 23:29:00: 0.00% completed...
2017-06-19 23:29:01: 5.09% completed...
2017-06-19 23:29:01: 10.18% completed...
2017-06-19 23:29:01: 15.27% completed...
2017-06-19 23:29:01: 20.36% completed...
2017-06-19 23:29:01: 25.45% completed...
2017-06-19 23:29:01: 30.53% completed...
2017-06-19 23:29:01: 35.62% completed...
2017-06-19 23:29:01: 40.71% completed...
2017-06-19 23:29:02: 45.80% completed...
2017-06-19 23:29:02: 50.89% completed...
2017-06-19 23:29:02: 55.98% completed...
2017-06-19 23:29:02: 61.07% completed...
2017-06-19 23:29:02: 66.16% completed...
2017-06-19 23:29:02: 71.25% completed...
2017-06-19 23:29:02: 76.34% completed...
2017-06-19 23:29:02: 81.42% completed...
2017-06-19 23:29:02: 86.51% completed...
2017-06-19 23:29:02: 91.60% completed...
2017-06-19 23:29:02: 96.69% completed...
2017-06-19 23:29:02: 100.00% completed.
2017-06-19 23:29:02: End of calculation.
2017-06-19 23:29:02: Total calculation time: 2089 ms.
done
computing RF ...
(standard_in) 2: syntax error
(standard_in) 2: syntax error
done
All done!
