pruning ...
done
computing MS ...
TreeCmp version 1.0-b291

Active options:
Type of the analysis:  one-to-all comparison mode (-r)
Metrics:
  1. MatchingSplit (ms)
Input file: ../gene_trees/randprune/xen.rs.gt.randprune.0.090.trees
Output file: ../results/xen.rs.randprune.0.090.MS.dat
Additional options:
P - Prune compared trees if needed (trees can have different leaf sets).
-----
2017-06-19 23:28:31: Start of scanning input file: ../gene_trees/randprune/xen.rs.gt.randprune.0.090.trees
2017-06-19 23:28:33: End of scanning input file: ../gene_trees/randprune/xen.rs.gt.randprune.0.090.trees
2017-06-19 23:28:33: 393 valid trees found in file: ../gene_trees/randprune/xen.rs.gt.randprune.0.090.trees
2017-06-19 23:28:33: Start of calculation...please wait...
2017-06-19 23:28:33: 0.00% completed...
2017-06-19 23:28:33: 5.09% completed...
2017-06-19 23:28:33: 10.18% completed...
2017-06-19 23:28:33: 15.27% completed...
2017-06-19 23:28:34: 20.36% completed...
2017-06-19 23:28:34: 25.45% completed...
2017-06-19 23:28:34: 30.53% completed...
2017-06-19 23:28:34: 35.62% completed...
2017-06-19 23:28:34: 40.71% completed...
2017-06-19 23:28:34: 45.80% completed...
2017-06-19 23:28:34: 50.89% completed...
2017-06-19 23:28:35: 55.98% completed...
2017-06-19 23:28:35: 61.07% completed...
2017-06-19 23:28:35: 66.16% completed...
2017-06-19 23:28:35: 71.25% completed...
2017-06-19 23:28:35: 76.34% completed...
2017-06-19 23:28:35: 81.42% completed...
2017-06-19 23:28:35: 86.51% completed...
2017-06-19 23:28:35: 91.60% completed...
2017-06-19 23:28:35: 96.69% completed...
2017-06-19 23:28:35: 100.00% completed.
2017-06-19 23:28:35: End of calculation.
2017-06-19 23:28:35: Total calculation time: 2545 ms.
done
computing RF ...
done
All done!
