pruning ...
done
computing MS ...
TreeCmp version 1.0-b291

Active options:
Type of the analysis:  one-to-all comparison mode (-r)
Metrics:
  1. MatchingSplit (ms)
Input file: ../gene_trees/randprune/xen.rs.gt.randprune.0.110.trees
Output file: ../results/xen.rs.randprune.0.110.MS.dat
Additional options:
P - Prune compared trees if needed (trees can have different leaf sets).
-----
2017-06-19 23:28:44: Start of scanning input file: ../gene_trees/randprune/xen.rs.gt.randprune.0.110.trees
2017-06-19 23:28:46: End of scanning input file: ../gene_trees/randprune/xen.rs.gt.randprune.0.110.trees
2017-06-19 23:28:46: 393 valid trees found in file: ../gene_trees/randprune/xen.rs.gt.randprune.0.110.trees
2017-06-19 23:28:46: Start of calculation...please wait...
2017-06-19 23:28:46: 0.00% completed...
2017-06-19 23:28:46: 5.09% completed...
2017-06-19 23:28:46: 10.18% completed...
2017-06-19 23:28:46: 15.27% completed...
2017-06-19 23:28:46: 20.36% completed...
2017-06-19 23:28:47: 25.45% completed...
2017-06-19 23:28:47: 30.53% completed...
2017-06-19 23:28:47: 35.62% completed...
2017-06-19 23:28:47: 40.71% completed...
2017-06-19 23:28:47: 45.80% completed...
2017-06-19 23:28:47: 50.89% completed...
2017-06-19 23:28:47: 55.98% completed...
2017-06-19 23:28:47: 61.07% completed...
2017-06-19 23:28:47: 66.16% completed...
2017-06-19 23:28:47: 71.25% completed...
2017-06-19 23:28:48: 76.34% completed...
2017-06-19 23:28:48: 81.42% completed...
2017-06-19 23:28:48: 86.51% completed...
2017-06-19 23:28:48: 91.60% completed...
2017-06-19 23:28:48: 96.69% completed...
2017-06-19 23:28:48: 100.00% completed.
2017-06-19 23:28:48: End of calculation.
2017-06-19 23:28:48: Total calculation time: 2304 ms.
done
computing RF ...
(standard_in) 2: syntax error
done
All done!
