pruning ...
done
computing MS ...
TreeCmp version 1.0-b291

Active options:
Type of the analysis:  one-to-all comparison mode (-r)
Metrics:
  1. MatchingSplit (ms)
Input file: ../gene_trees/randprune/xen.rs.gt.randprune.0.115.trees
Output file: ../results/xen.rs.randprune.0.115.MS.dat
Additional options:
P - Prune compared trees if needed (trees can have different leaf sets).
-----
2017-06-19 23:28:46: Start of scanning input file: ../gene_trees/randprune/xen.rs.gt.randprune.0.115.trees
2017-06-19 23:28:47: End of scanning input file: ../gene_trees/randprune/xen.rs.gt.randprune.0.115.trees
2017-06-19 23:28:47: 393 valid trees found in file: ../gene_trees/randprune/xen.rs.gt.randprune.0.115.trees
2017-06-19 23:28:47: Start of calculation...please wait...
2017-06-19 23:28:47: 0.00% completed...
2017-06-19 23:28:48: 5.09% completed...
2017-06-19 23:28:48: 10.18% completed...
2017-06-19 23:28:48: 15.27% completed...
2017-06-19 23:28:48: 20.36% completed...
2017-06-19 23:28:49: 25.45% completed...
2017-06-19 23:28:49: 30.53% completed...
2017-06-19 23:28:49: 35.62% completed...
2017-06-19 23:28:49: 40.71% completed...
2017-06-19 23:28:49: 45.80% completed...
2017-06-19 23:28:49: 50.89% completed...
2017-06-19 23:28:49: 55.98% completed...
2017-06-19 23:28:49: 61.07% completed...
2017-06-19 23:28:49: 66.16% completed...
2017-06-19 23:28:50: 71.25% completed...
2017-06-19 23:28:50: 76.34% completed...
2017-06-19 23:28:50: 81.42% completed...
2017-06-19 23:28:50: 86.51% completed...
2017-06-19 23:28:50: 91.60% completed...
2017-06-19 23:28:50: 96.69% completed...
2017-06-19 23:28:50: 100.00% completed.
2017-06-19 23:28:50: End of calculation.
2017-06-19 23:28:50: Total calculation time: 2487 ms.
done
computing RF ...
(standard_in) 2: syntax error
done
All done!
