TreeCmp version 1.0-b291

Active options:
Type of the analysis:  one-to-all comparison mode (-r)
Metrics:
  1. MatchingSplit (ms)
Input file: ../gene_trees/rogueNarok/xen.can.RnR.35.trees
Output file: ../results/xen.can.RnR.35.MS.dat
Additional options:
P - Prune compared trees if needed (trees can have different leaf sets).
-----
2017-06-20 11:28:22: Start of scanning input file: ../gene_trees/rogueNarok/xen.can.RnR.35.trees
2017-06-20 11:28:24: End of scanning input file: ../gene_trees/rogueNarok/xen.can.RnR.35.trees
2017-06-20 11:28:24: 212 valid trees found in file: ../gene_trees/rogueNarok/xen.can.RnR.35.trees
2017-06-20 11:28:24: Start of calculation...please wait...
2017-06-20 11:28:24: 0.00% completed...
2017-06-20 11:28:25: 5.19% completed...
2017-06-20 11:28:26: 10.38% completed...
2017-06-20 11:28:26: 15.57% completed...
2017-06-20 11:28:27: 20.75% completed...
2017-06-20 11:28:27: 25.94% completed...
2017-06-20 11:28:27: 31.13% completed...
2017-06-20 11:28:28: 36.32% completed...
2017-06-20 11:28:28: 41.51% completed...
2017-06-20 11:28:28: 46.70% completed...
2017-06-20 11:28:28: 51.89% completed...
2017-06-20 11:28:29: 57.08% completed...
2017-06-20 11:28:29: 62.26% completed...
2017-06-20 11:28:29: 67.45% completed...
2017-06-20 11:28:29: 72.64% completed...
2017-06-20 11:28:29: 77.83% completed...
2017-06-20 11:28:29: 83.02% completed...
2017-06-20 11:28:29: 88.21% completed...
2017-06-20 11:28:29: 93.40% completed...
2017-06-20 11:28:30: 98.58% completed...
2017-06-20 11:28:30: 100.00% completed.
2017-06-20 11:28:30: End of calculation.
2017-06-20 11:28:30: Total calculation time: 5536 ms.
