pruning
compute MS
TreeCmp version 1.0-b291

Active options:
Type of the analysis:  one-to-all comparison mode (-r)
Metrics:
  1. MatchingSplit (ms)
Input file: ../gene_trees/rooted_pruning/xen.can.gt.trees.2.48.trees
Output file: ../results/xen.can.trees.2.48.MS.dat
Additional options:
P - Prune compared trees if needed (trees can have different leaf sets).
-----
2017-06-20 10:04:28: Start of scanning input file: ../gene_trees/rooted_pruning/xen.can.gt.trees.2.48.trees
2017-06-20 10:04:30: End of scanning input file: ../gene_trees/rooted_pruning/xen.can.gt.trees.2.48.trees
2017-06-20 10:04:30: 212 valid trees found in file: ../gene_trees/rooted_pruning/xen.can.gt.trees.2.48.trees
2017-06-20 10:04:30: Start of calculation...please wait...
2017-06-20 10:04:30: 0.00% completed...
2017-06-20 10:04:31: 5.19% completed...
2017-06-20 10:04:32: 10.38% completed...
2017-06-20 10:04:32: 15.57% completed...
2017-06-20 10:04:32: 20.75% completed...
2017-06-20 10:04:33: 25.94% completed...
2017-06-20 10:04:33: 31.13% completed...
2017-06-20 10:04:33: 36.32% completed...
2017-06-20 10:04:34: 41.51% completed...
2017-06-20 10:04:34: 46.70% completed...
2017-06-20 10:04:34: 51.89% completed...
2017-06-20 10:04:34: 57.08% completed...
2017-06-20 10:04:35: 62.26% completed...
2017-06-20 10:04:35: 67.45% completed...
2017-06-20 10:04:35: 72.64% completed...
2017-06-20 10:04:35: 77.83% completed...
2017-06-20 10:04:35: 83.02% completed...
2017-06-20 10:04:35: 88.21% completed...
2017-06-20 10:04:36: 93.40% completed...
2017-06-20 10:04:36: 98.58% completed...
2017-06-20 10:04:36: 100.00% completed.
2017-06-20 10:04:36: End of calculation.
2017-06-20 10:04:36: Total calculation time: 6001 ms.
compute RF
