pruning ...
done
computing MS ...
TreeCmp version 1.0-b291

Active options:
Type of the analysis:  one-to-all comparison mode (-r)
Metrics:
  1. MatchingSplit (ms)
Input file: ../gene_trees/randprune/xen.rs.gt.randprune.0.015.trees
Output file: ../results/xen.rs.randprune.0.015.MS.dat
Additional options:
P - Prune compared trees if needed (trees can have different leaf sets).
-----
2017-06-19 23:27:28: Start of scanning input file: ../gene_trees/randprune/xen.rs.gt.randprune.0.015.trees
2017-06-19 23:27:29: End of scanning input file: ../gene_trees/randprune/xen.rs.gt.randprune.0.015.trees
2017-06-19 23:27:29: 393 valid trees found in file: ../gene_trees/randprune/xen.rs.gt.randprune.0.015.trees
2017-06-19 23:27:29: Start of calculation...please wait...
2017-06-19 23:27:29: 0.00% completed...
2017-06-19 23:27:30: 5.09% completed...
2017-06-19 23:27:30: 10.18% completed...
2017-06-19 23:27:30: 15.27% completed...
2017-06-19 23:27:30: 20.36% completed...
2017-06-19 23:27:31: 25.45% completed...
2017-06-19 23:27:31: 30.53% completed...
2017-06-19 23:27:31: 35.62% completed...
2017-06-19 23:27:31: 40.71% completed...
2017-06-19 23:27:31: 45.80% completed...
2017-06-19 23:27:31: 50.89% completed...
2017-06-19 23:27:31: 55.98% completed...
2017-06-19 23:27:31: 61.07% completed...
2017-06-19 23:27:31: 66.16% completed...
2017-06-19 23:27:32: 71.25% completed...
2017-06-19 23:27:32: 76.34% completed...
2017-06-19 23:27:32: 81.42% completed...
2017-06-19 23:27:32: 86.51% completed...
2017-06-19 23:27:32: 91.60% completed...
2017-06-19 23:27:32: 96.69% completed...
2017-06-19 23:27:32: 100.00% completed.
2017-06-19 23:27:32: End of calculation.
2017-06-19 23:27:32: Total calculation time: 2558 ms.
done
computing RF ...
done
All done!
