pruning
compute MS
TreeCmp version 1.0-b291

Active options:
Type of the analysis:  one-to-all comparison mode (-r)
Metrics:
  1. MatchingSplit (ms)
Input file: ../gene_trees/rooted_pruning/xen.can.gt.trees.3.92.trees
Output file: ../results/xen.can.trees.3.92.MS.dat
Additional options:
P - Prune compared trees if needed (trees can have different leaf sets).
-----
2017-06-20 10:04:27: Start of scanning input file: ../gene_trees/rooted_pruning/xen.can.gt.trees.3.92.trees
2017-06-20 10:04:27: End of scanning input file: ../gene_trees/rooted_pruning/xen.can.gt.trees.3.92.trees
2017-06-20 10:04:27: 212 valid trees found in file: ../gene_trees/rooted_pruning/xen.can.gt.trees.3.92.trees
2017-06-20 10:04:28: Start of calculation...please wait...
2017-06-20 10:04:28: 0.00% completed...
2017-06-20 10:04:28: 5.19% completed...
2017-06-20 10:04:29: 10.38% completed...
2017-06-20 10:04:29: 15.57% completed...
2017-06-20 10:04:29: 20.75% completed...
2017-06-20 10:04:29: 25.94% completed...
2017-06-20 10:04:30: 31.13% completed...
2017-06-20 10:04:30: 36.32% completed...
2017-06-20 10:04:30: 41.51% completed...
2017-06-20 10:04:30: 46.70% completed...
2017-06-20 10:04:31: 51.89% completed...
2017-06-20 10:04:31: 57.08% completed...
2017-06-20 10:04:31: 62.26% completed...
2017-06-20 10:04:31: 67.45% completed...
2017-06-20 10:04:31: 72.64% completed...
2017-06-20 10:04:32: 77.83% completed...
2017-06-20 10:04:32: 83.02% completed...
2017-06-20 10:04:32: 88.21% completed...
2017-06-20 10:04:32: 93.40% completed...
2017-06-20 10:04:32: 98.58% completed...
2017-06-20 10:04:32: 100.00% completed.
2017-06-20 10:04:32: End of calculation.
2017-06-20 10:04:32: Total calculation time: 4784 ms.
compute RF
