pruning
compute MS
TreeCmp version 1.0-b291

Active options:
Type of the analysis:  one-to-all comparison mode (-r)
Metrics:
  1. MatchingSplit (ms)
Input file: ../gene_trees/rooted_pruning/xen.can.gt.trees.3.68.trees
Output file: ../results/xen.can.trees.3.68.MS.dat
Additional options:
P - Prune compared trees if needed (trees can have different leaf sets).
-----
2017-06-20 10:04:27: Start of scanning input file: ../gene_trees/rooted_pruning/xen.can.gt.trees.3.68.trees
2017-06-20 10:04:28: End of scanning input file: ../gene_trees/rooted_pruning/xen.can.gt.trees.3.68.trees
2017-06-20 10:04:28: 212 valid trees found in file: ../gene_trees/rooted_pruning/xen.can.gt.trees.3.68.trees
2017-06-20 10:04:28: Start of calculation...please wait...
2017-06-20 10:04:29: 0.00% completed...
2017-06-20 10:04:29: 5.19% completed...
2017-06-20 10:04:30: 10.38% completed...
2017-06-20 10:04:30: 15.57% completed...
2017-06-20 10:04:31: 20.75% completed...
2017-06-20 10:04:31: 25.94% completed...
2017-06-20 10:04:31: 31.13% completed...
2017-06-20 10:04:31: 36.32% completed...
2017-06-20 10:04:32: 41.51% completed...
2017-06-20 10:04:32: 46.70% completed...
2017-06-20 10:04:32: 51.89% completed...
2017-06-20 10:04:33: 57.08% completed...
2017-06-20 10:04:33: 62.26% completed...
2017-06-20 10:04:33: 67.45% completed...
2017-06-20 10:04:33: 72.64% completed...
2017-06-20 10:04:34: 77.83% completed...
2017-06-20 10:04:34: 83.02% completed...
2017-06-20 10:04:34: 88.21% completed...
2017-06-20 10:04:34: 93.40% completed...
2017-06-20 10:04:34: 98.58% completed...
2017-06-20 10:04:35: 100.00% completed.
2017-06-20 10:04:35: End of calculation.
2017-06-20 10:04:35: Total calculation time: 6028 ms.
compute RF
