pruning ...
done
computing MS ...
TreeCmp version 1.0-b291

Active options:
Type of the analysis:  one-to-all comparison mode (-r)
Metrics:
  1. MatchingSplit (ms)
Input file: ../gene_trees/randprune/xen.can.gt.randprune.0.100.trees
Output file: ../results/xen.can.randprune.0.100.MS.dat
Additional options:
P - Prune compared trees if needed (trees can have different leaf sets).
-----
2017-06-19 22:39:42: Start of scanning input file: ../gene_trees/randprune/xen.can.gt.randprune.0.100.trees
2017-06-19 22:39:46: End of scanning input file: ../gene_trees/randprune/xen.can.gt.randprune.0.100.trees
2017-06-19 22:39:46: 212 valid trees found in file: ../gene_trees/randprune/xen.can.gt.randprune.0.100.trees
2017-06-19 22:39:46: Start of calculation...please wait...
2017-06-19 22:39:46: 0.00% completed...
2017-06-19 22:39:47: 5.19% completed...
2017-06-19 22:39:48: 10.38% completed...
2017-06-19 22:39:49: 15.57% completed...
2017-06-19 22:39:49: 20.75% completed...
2017-06-19 22:39:50: 25.94% completed...
2017-06-19 22:39:51: 31.13% completed...
2017-06-19 22:39:51: 36.32% completed...
2017-06-19 22:39:52: 41.51% completed...
2017-06-19 22:39:52: 46.70% completed...
2017-06-19 22:39:53: 51.89% completed...
2017-06-19 22:39:53: 57.08% completed...
2017-06-19 22:39:53: 62.26% completed...
2017-06-19 22:39:54: 67.45% completed...
2017-06-19 22:39:54: 72.64% completed...
2017-06-19 22:39:54: 77.83% completed...
2017-06-19 22:39:54: 83.02% completed...
2017-06-19 22:39:54: 88.21% completed...
2017-06-19 22:39:55: 93.40% completed...
2017-06-19 22:39:55: 98.58% completed...
2017-06-19 22:39:55: 100.00% completed.
2017-06-19 22:39:55: End of calculation.
2017-06-19 22:39:55: Total calculation time: 9120 ms.
done
computing RF ...
done
All done!
