pruning ...
done
computing MS ...
TreeCmp version 1.0-b291

Active options:
Type of the analysis:  one-to-all comparison mode (-r)
Metrics:
  1. MatchingSplit (ms)
Input file: ../gene_trees/randprune/xen.can.gt.randprune.0.075.trees
Output file: ../results/xen.can.randprune.0.075.MS.dat
Additional options:
P - Prune compared trees if needed (trees can have different leaf sets).
-----
2017-06-19 22:39:16: Start of scanning input file: ../gene_trees/randprune/xen.can.gt.randprune.0.075.trees
2017-06-19 22:39:20: End of scanning input file: ../gene_trees/randprune/xen.can.gt.randprune.0.075.trees
2017-06-19 22:39:20: 212 valid trees found in file: ../gene_trees/randprune/xen.can.gt.randprune.0.075.trees
2017-06-19 22:39:20: Start of calculation...please wait...
2017-06-19 22:39:20: 0.00% completed...
2017-06-19 22:39:22: 5.19% completed...
2017-06-19 22:39:23: 10.38% completed...
2017-06-19 22:39:23: 15.57% completed...
2017-06-19 22:39:24: 20.75% completed...
2017-06-19 22:39:24: 25.94% completed...
2017-06-19 22:39:25: 31.13% completed...
2017-06-19 22:39:25: 36.32% completed...
2017-06-19 22:39:25: 41.51% completed...
2017-06-19 22:39:26: 46.70% completed...
2017-06-19 22:39:26: 51.89% completed...
2017-06-19 22:39:26: 57.08% completed...
2017-06-19 22:39:26: 62.26% completed...
2017-06-19 22:39:27: 67.45% completed...
2017-06-19 22:39:27: 72.64% completed...
2017-06-19 22:39:27: 77.83% completed...
2017-06-19 22:39:28: 83.02% completed...
2017-06-19 22:39:28: 88.21% completed...
2017-06-19 22:39:28: 93.40% completed...
2017-06-19 22:39:28: 98.58% completed...
2017-06-19 22:39:28: 100.00% completed.
2017-06-19 22:39:28: End of calculation.
2017-06-19 22:39:28: Total calculation time: 8475 ms.
done
computing RF ...
done
All done!
