pruning ...
done
computing MS ...
TreeCmp version 1.0-b291

Active options:
Type of the analysis:  one-to-all comparison mode (-r)
Metrics:
  1. MatchingSplit (ms)
Input file: ../gene_trees/randprune/xen.can.gt.randprune.0.060.trees
Output file: ../results/xen.can.randprune.0.060.MS.dat
Additional options:
P - Prune compared trees if needed (trees can have different leaf sets).
-----
2017-06-19 22:39:04: Start of scanning input file: ../gene_trees/randprune/xen.can.gt.randprune.0.060.trees
2017-06-19 22:39:08: End of scanning input file: ../gene_trees/randprune/xen.can.gt.randprune.0.060.trees
2017-06-19 22:39:08: 212 valid trees found in file: ../gene_trees/randprune/xen.can.gt.randprune.0.060.trees
2017-06-19 22:39:08: Start of calculation...please wait...
2017-06-19 22:39:08: 0.00% completed...
2017-06-19 22:39:09: 5.19% completed...
2017-06-19 22:39:10: 10.38% completed...
2017-06-19 22:39:11: 15.57% completed...
2017-06-19 22:39:11: 20.75% completed...
2017-06-19 22:39:12: 25.94% completed...
2017-06-19 22:39:12: 31.13% completed...
2017-06-19 22:39:12: 36.32% completed...
2017-06-19 22:39:13: 41.51% completed...
2017-06-19 22:39:13: 46.70% completed...
2017-06-19 22:39:13: 51.89% completed...
2017-06-19 22:39:14: 57.08% completed...
2017-06-19 22:39:14: 62.26% completed...
2017-06-19 22:39:14: 67.45% completed...
2017-06-19 22:39:14: 72.64% completed...
2017-06-19 22:39:15: 77.83% completed...
2017-06-19 22:39:15: 83.02% completed...
2017-06-19 22:39:15: 88.21% completed...
2017-06-19 22:39:15: 93.40% completed...
2017-06-19 22:39:15: 98.58% completed...
2017-06-19 22:39:16: 100.00% completed.
2017-06-19 22:39:16: End of calculation.
2017-06-19 22:39:16: Total calculation time: 7890 ms.
done
computing RF ...
done
All done!
