pruning
compute MS
TreeCmp version 1.0-b291

Active options:
Type of the analysis:  one-to-all comparison mode (-r)
Metrics:
  1. MatchingSplit (ms)
Input file: ../gene_trees/rooted_pruning/xen.can.gt.trees.2.18.trees
Output file: ../results/xen.can.trees.2.18.MS.dat
Additional options:
P - Prune compared trees if needed (trees can have different leaf sets).
-----
2017-06-20 10:04:34: Start of scanning input file: ../gene_trees/rooted_pruning/xen.can.gt.trees.2.18.trees
2017-06-20 10:04:36: End of scanning input file: ../gene_trees/rooted_pruning/xen.can.gt.trees.2.18.trees
2017-06-20 10:04:36: 212 valid trees found in file: ../gene_trees/rooted_pruning/xen.can.gt.trees.2.18.trees
2017-06-20 10:04:36: Start of calculation...please wait...
2017-06-20 10:04:36: 0.00% completed...
2017-06-20 10:04:36: 5.19% completed...
2017-06-20 10:04:37: 10.38% completed...
2017-06-20 10:04:37: 15.57% completed...
2017-06-20 10:04:37: 20.75% completed...
2017-06-20 10:04:37: 25.94% completed...
2017-06-20 10:04:37: 31.13% completed...
2017-06-20 10:04:38: 36.32% completed...
2017-06-20 10:04:38: 41.51% completed...
2017-06-20 10:04:38: 46.70% completed...
2017-06-20 10:04:38: 51.89% completed...
2017-06-20 10:04:38: 57.08% completed...
2017-06-20 10:04:38: 62.26% completed...
2017-06-20 10:04:38: 67.45% completed...
2017-06-20 10:04:38: 72.64% completed...
2017-06-20 10:04:38: 77.83% completed...
2017-06-20 10:04:39: 83.02% completed...
2017-06-20 10:04:39: 88.21% completed...
2017-06-20 10:04:39: 93.40% completed...
2017-06-20 10:04:39: 98.58% completed...
2017-06-20 10:04:39: 100.00% completed.
2017-06-20 10:04:39: End of calculation.
2017-06-20 10:04:39: Total calculation time: 3192 ms.
compute RF
