pruning ...
done
computing MS ...
TreeCmp version 1.0-b291

Active options:
Type of the analysis:  one-to-all comparison mode (-r)
Metrics:
  1. MatchingSplit (ms)
Input file: ../gene_trees/randprune/xen.rs.gt.randprune.0.060.trees
Output file: ../results/xen.rs.randprune.0.060.MS.dat
Additional options:
P - Prune compared trees if needed (trees can have different leaf sets).
-----
2017-06-19 23:28:08: Start of scanning input file: ../gene_trees/randprune/xen.rs.gt.randprune.0.060.trees
2017-06-19 23:28:10: End of scanning input file: ../gene_trees/randprune/xen.rs.gt.randprune.0.060.trees
2017-06-19 23:28:10: 393 valid trees found in file: ../gene_trees/randprune/xen.rs.gt.randprune.0.060.trees
2017-06-19 23:28:10: Start of calculation...please wait...
2017-06-19 23:28:10: 0.00% completed...
2017-06-19 23:28:10: 5.09% completed...
2017-06-19 23:28:10: 10.18% completed...
2017-06-19 23:28:11: 15.27% completed...
2017-06-19 23:28:11: 20.36% completed...
2017-06-19 23:28:11: 25.45% completed...
2017-06-19 23:28:11: 30.53% completed...
2017-06-19 23:28:11: 35.62% completed...
2017-06-19 23:28:11: 40.71% completed...
2017-06-19 23:28:11: 45.80% completed...
2017-06-19 23:28:11: 50.89% completed...
2017-06-19 23:28:12: 55.98% completed...
2017-06-19 23:28:12: 61.07% completed...
2017-06-19 23:28:12: 66.16% completed...
2017-06-19 23:28:12: 71.25% completed...
2017-06-19 23:28:12: 76.34% completed...
2017-06-19 23:28:12: 81.42% completed...
2017-06-19 23:28:12: 86.51% completed...
2017-06-19 23:28:12: 91.60% completed...
2017-06-19 23:28:13: 96.69% completed...
2017-06-19 23:28:13: 100.00% completed.
2017-06-19 23:28:13: End of calculation.
2017-06-19 23:28:13: Total calculation time: 2830 ms.
done
computing RF ...
done
All done!
