pruning ...
done
computing MS ...
TreeCmp version 1.0-b291

Active options:
Type of the analysis:  one-to-all comparison mode (-r)
Metrics:
  1. MatchingSplit (ms)
Input file: ../gene_trees/randprune/xen.rs.gt.randprune.0.130.trees
Output file: ../results/xen.rs.randprune.0.130.MS.dat
Additional options:
P - Prune compared trees if needed (trees can have different leaf sets).
-----
2017-06-19 23:28:55: Start of scanning input file: ../gene_trees/randprune/xen.rs.gt.randprune.0.130.trees
2017-06-19 23:28:56: End of scanning input file: ../gene_trees/randprune/xen.rs.gt.randprune.0.130.trees
2017-06-19 23:28:56: 393 valid trees found in file: ../gene_trees/randprune/xen.rs.gt.randprune.0.130.trees
2017-06-19 23:28:56: Start of calculation...please wait...
2017-06-19 23:28:56: 0.00% completed...
2017-06-19 23:28:56: 5.09% completed...
2017-06-19 23:28:56: 10.18% completed...
2017-06-19 23:28:56: 15.27% completed...
2017-06-19 23:28:57: 20.36% completed...
2017-06-19 23:28:57: 25.45% completed...
2017-06-19 23:28:57: 30.53% completed...
2017-06-19 23:28:57: 35.62% completed...
2017-06-19 23:28:57: 40.71% completed...
2017-06-19 23:28:57: 45.80% completed...
2017-06-19 23:28:57: 50.89% completed...
2017-06-19 23:28:57: 55.98% completed...
2017-06-19 23:28:58: 61.07% completed...
2017-06-19 23:28:58: 66.16% completed...
2017-06-19 23:28:58: 71.25% completed...
2017-06-19 23:28:58: 76.34% completed...
2017-06-19 23:28:58: 81.42% completed...
2017-06-19 23:28:58: 86.51% completed...
2017-06-19 23:28:58: 91.60% completed...
2017-06-19 23:28:58: 96.69% completed...
2017-06-19 23:28:58: 100.00% completed.
2017-06-19 23:28:58: End of calculation.
2017-06-19 23:28:58: Total calculation time: 2551 ms.
done
computing RF ...
(standard_in) 2: syntax error
(standard_in) 2: syntax error
done
All done!
