pruning ...
done
computing MS ...
TreeCmp version 1.0-b291

Active options:
Type of the analysis:  one-to-all comparison mode (-r)
Metrics:
  1. MatchingSplit (ms)
Input file: ../gene_trees/randprune/xen.can.gt.randprune.0.095.trees
Output file: ../results/xen.can.randprune.0.095.MS.dat
Additional options:
P - Prune compared trees if needed (trees can have different leaf sets).
-----
2017-06-19 22:39:40: Start of scanning input file: ../gene_trees/randprune/xen.can.gt.randprune.0.095.trees
2017-06-19 22:39:44: End of scanning input file: ../gene_trees/randprune/xen.can.gt.randprune.0.095.trees
2017-06-19 22:39:44: 212 valid trees found in file: ../gene_trees/randprune/xen.can.gt.randprune.0.095.trees
2017-06-19 22:39:44: Start of calculation...please wait...
2017-06-19 22:39:44: 0.00% completed...
2017-06-19 22:39:45: 5.19% completed...
2017-06-19 22:39:46: 10.38% completed...
2017-06-19 22:39:46: 15.57% completed...
2017-06-19 22:39:47: 20.75% completed...
2017-06-19 22:39:48: 25.94% completed...
2017-06-19 22:39:48: 31.13% completed...
2017-06-19 22:39:49: 36.32% completed...
2017-06-19 22:39:49: 41.51% completed...
2017-06-19 22:39:49: 46.70% completed...
2017-06-19 22:39:50: 51.89% completed...
2017-06-19 22:39:50: 57.08% completed...
2017-06-19 22:39:51: 62.26% completed...
2017-06-19 22:39:51: 67.45% completed...
2017-06-19 22:39:51: 72.64% completed...
2017-06-19 22:39:52: 77.83% completed...
2017-06-19 22:39:52: 83.02% completed...
2017-06-19 22:39:53: 88.21% completed...
2017-06-19 22:39:53: 93.40% completed...
2017-06-19 22:39:53: 98.58% completed...
2017-06-19 22:39:53: 100.00% completed.
2017-06-19 22:39:53: End of calculation.
2017-06-19 22:39:53: Total calculation time: 9722 ms.
done
computing RF ...
done
All done!
