pruning ...
done
computing MS ...
TreeCmp version 1.0-b291

Active options:
Type of the analysis:  one-to-all comparison mode (-r)
Metrics:
  1. MatchingSplit (ms)
Input file: ../gene_trees/randprune/xen.can.gt.randprune.0.125.trees
Output file: ../results/xen.can.randprune.0.125.MS.dat
Additional options:
P - Prune compared trees if needed (trees can have different leaf sets).
-----
2017-06-19 22:40:07: Start of scanning input file: ../gene_trees/randprune/xen.can.gt.randprune.0.125.trees
2017-06-19 22:40:10: End of scanning input file: ../gene_trees/randprune/xen.can.gt.randprune.0.125.trees
2017-06-19 22:40:10: 212 valid trees found in file: ../gene_trees/randprune/xen.can.gt.randprune.0.125.trees
2017-06-19 22:40:10: Start of calculation...please wait...
2017-06-19 22:40:10: 0.00% completed...
2017-06-19 22:40:12: 5.19% completed...
2017-06-19 22:40:13: 10.38% completed...
2017-06-19 22:40:13: 15.57% completed...
2017-06-19 22:40:14: 20.75% completed...
2017-06-19 22:40:14: 25.94% completed...
2017-06-19 22:40:14: 31.13% completed...
2017-06-19 22:40:15: 36.32% completed...
2017-06-19 22:40:15: 41.51% completed...
2017-06-19 22:40:15: 46.70% completed...
2017-06-19 22:40:15: 51.89% completed...
2017-06-19 22:40:16: 57.08% completed...
2017-06-19 22:40:16: 62.26% completed...
2017-06-19 22:40:16: 67.45% completed...
2017-06-19 22:40:16: 72.64% completed...
2017-06-19 22:40:17: 77.83% completed...
2017-06-19 22:40:17: 83.02% completed...
2017-06-19 22:40:17: 88.21% completed...
2017-06-19 22:40:17: 93.40% completed...
2017-06-19 22:40:17: 98.58% completed...
2017-06-19 22:40:18: 100.00% completed.
2017-06-19 22:40:18: End of calculation.
2017-06-19 22:40:18: Total calculation time: 7485 ms.
done
computing RF ...
done
All done!
