TreeCmp version 1.0-b291

Active options:
Type of the analysis:  one-to-all comparison mode (-r)
Metrics:
  1. MatchingSplit (ms)
Input file: ../gene_trees/rogueNarok/xen.can.RnR.5.trees
Output file: ../results/xen.can.RnR.5.MS.dat
Additional options:
P - Prune compared trees if needed (trees can have different leaf sets).
-----
2017-06-20 11:28:21: Start of scanning input file: ../gene_trees/rogueNarok/xen.can.RnR.5.trees
2017-06-20 11:28:23: End of scanning input file: ../gene_trees/rogueNarok/xen.can.RnR.5.trees
2017-06-20 11:28:23: 212 valid trees found in file: ../gene_trees/rogueNarok/xen.can.RnR.5.trees
2017-06-20 11:28:23: Start of calculation...please wait...
2017-06-20 11:28:23: 0.00% completed...
2017-06-20 11:28:24: 5.19% completed...
2017-06-20 11:28:25: 10.38% completed...
2017-06-20 11:28:25: 15.57% completed...
2017-06-20 11:28:25: 20.75% completed...
2017-06-20 11:28:25: 25.94% completed...
2017-06-20 11:28:26: 31.13% completed...
2017-06-20 11:28:26: 36.32% completed...
2017-06-20 11:28:26: 41.51% completed...
2017-06-20 11:28:26: 46.70% completed...
2017-06-20 11:28:27: 51.89% completed...
2017-06-20 11:28:27: 57.08% completed...
2017-06-20 11:28:27: 62.26% completed...
2017-06-20 11:28:27: 67.45% completed...
2017-06-20 11:28:27: 72.64% completed...
2017-06-20 11:28:27: 77.83% completed...
2017-06-20 11:28:28: 83.02% completed...
2017-06-20 11:28:28: 88.21% completed...
2017-06-20 11:28:28: 93.40% completed...
2017-06-20 11:28:28: 98.58% completed...
2017-06-20 11:28:28: 100.00% completed.
2017-06-20 11:28:28: End of calculation.
2017-06-20 11:28:28: Total calculation time: 4509 ms.
