pruning ...
done
computing MS ...
TreeCmp version 1.0-b291

Active options:
Type of the analysis:  one-to-all comparison mode (-r)
Metrics:
  1. MatchingSplit (ms)
Input file: ../gene_trees/randprune/xen.rs.gt.randprune.0.005.trees
Output file: ../results/xen.rs.randprune.0.005.MS.dat
Additional options:
P - Prune compared trees if needed (trees can have different leaf sets).
-----
2017-06-19 23:27:15: Start of scanning input file: ../gene_trees/randprune/xen.rs.gt.randprune.0.005.trees
2017-06-19 23:27:16: End of scanning input file: ../gene_trees/randprune/xen.rs.gt.randprune.0.005.trees
2017-06-19 23:27:16: 393 valid trees found in file: ../gene_trees/randprune/xen.rs.gt.randprune.0.005.trees
2017-06-19 23:27:16: Start of calculation...please wait...
2017-06-19 23:27:16: 0.00% completed...
2017-06-19 23:27:17: 5.09% completed...
2017-06-19 23:27:17: 10.18% completed...
2017-06-19 23:27:17: 15.27% completed...
2017-06-19 23:27:17: 20.36% completed...
2017-06-19 23:27:17: 25.45% completed...
2017-06-19 23:27:18: 30.53% completed...
2017-06-19 23:27:18: 35.62% completed...
2017-06-19 23:27:18: 40.71% completed...
2017-06-19 23:27:18: 45.80% completed...
2017-06-19 23:27:18: 50.89% completed...
2017-06-19 23:27:18: 55.98% completed...
2017-06-19 23:27:18: 61.07% completed...
2017-06-19 23:27:18: 66.16% completed...
2017-06-19 23:27:18: 71.25% completed...
2017-06-19 23:27:18: 76.34% completed...
2017-06-19 23:27:19: 81.42% completed...
2017-06-19 23:27:19: 86.51% completed...
2017-06-19 23:27:19: 91.60% completed...
2017-06-19 23:27:19: 96.69% completed...
2017-06-19 23:27:19: 100.00% completed.
2017-06-19 23:27:19: End of calculation.
2017-06-19 23:27:19: Total calculation time: 2464 ms.
done
computing RF ...
done
All done!
