pruning
compute MS
TreeCmp version 1.0-b291

Active options:
Type of the analysis:  one-to-all comparison mode (-r)
Metrics:
  1. MatchingSplit (ms)
Input file: ../gene_trees/rooted_pruning/xen.can.gt.trees.2.96.trees
Output file: ../results/xen.can.trees.2.96.MS.dat
Additional options:
P - Prune compared trees if needed (trees can have different leaf sets).
-----
2017-06-20 10:04:31: Start of scanning input file: ../gene_trees/rooted_pruning/xen.can.gt.trees.2.96.trees
2017-06-20 10:04:32: End of scanning input file: ../gene_trees/rooted_pruning/xen.can.gt.trees.2.96.trees
2017-06-20 10:04:32: 212 valid trees found in file: ../gene_trees/rooted_pruning/xen.can.gt.trees.2.96.trees
2017-06-20 10:04:32: Start of calculation...please wait...
2017-06-20 10:04:32: 0.00% completed...
2017-06-20 10:04:33: 5.19% completed...
2017-06-20 10:04:34: 10.38% completed...
2017-06-20 10:04:34: 15.57% completed...
2017-06-20 10:04:34: 20.75% completed...
2017-06-20 10:04:35: 25.94% completed...
2017-06-20 10:04:35: 31.13% completed...
2017-06-20 10:04:35: 36.32% completed...
2017-06-20 10:04:35: 41.51% completed...
2017-06-20 10:04:35: 46.70% completed...
2017-06-20 10:04:35: 51.89% completed...
2017-06-20 10:04:35: 57.08% completed...
2017-06-20 10:04:36: 62.26% completed...
2017-06-20 10:04:36: 67.45% completed...
2017-06-20 10:04:36: 72.64% completed...
2017-06-20 10:04:36: 77.83% completed...
2017-06-20 10:04:36: 83.02% completed...
2017-06-20 10:04:36: 88.21% completed...
2017-06-20 10:04:36: 93.40% completed...
2017-06-20 10:04:37: 98.58% completed...
2017-06-20 10:04:37: 100.00% completed.
2017-06-20 10:04:37: End of calculation.
2017-06-20 10:04:37: Total calculation time: 4235 ms.
compute RF
