TreeCmp version 1.0-b291

Active options:
Type of the analysis:  one-to-all comparison mode (-r)
Metrics:
  1. MatchingSplit (ms)
Input file: ../gene_trees/rogueNarok/xen.can.RnR.0.10.trees
Output file: ../results/xen.can.RnR.0.10.MS.dat
Additional options:
P - Prune compared trees if needed (trees can have different leaf sets).
-----
Error. Specified file: ../gene_trees/rogueNarok/xen.can.RnR.0.10.trees not found.

/home/uym2/repositories/global/src/shell/compareTrees.missingBranch: line 15: ../gene_trees/rogueNarok/xen.can.RnR.0.10.trees: No such file or directory
