pruning ...
done
computing MS ...
TreeCmp version 1.0-b291

Active options:
Type of the analysis:  one-to-all comparison mode (-r)
Metrics:
  1. MatchingSplit (ms)
Input file: ../gene_trees/randprune/xen.rs.gt.randprune.0.105.trees
Output file: ../results/xen.rs.randprune.0.105.MS.dat
Additional options:
P - Prune compared trees if needed (trees can have different leaf sets).
-----
2017-06-19 23:28:42: Start of scanning input file: ../gene_trees/randprune/xen.rs.gt.randprune.0.105.trees
2017-06-19 23:28:43: End of scanning input file: ../gene_trees/randprune/xen.rs.gt.randprune.0.105.trees
2017-06-19 23:28:43: 393 valid trees found in file: ../gene_trees/randprune/xen.rs.gt.randprune.0.105.trees
2017-06-19 23:28:43: Start of calculation...please wait...
2017-06-19 23:28:43: 0.00% completed...
2017-06-19 23:28:43: 5.09% completed...
2017-06-19 23:28:43: 10.18% completed...
2017-06-19 23:28:44: 15.27% completed...
2017-06-19 23:28:44: 20.36% completed...
2017-06-19 23:28:44: 25.45% completed...
2017-06-19 23:28:44: 30.53% completed...
2017-06-19 23:28:44: 35.62% completed...
2017-06-19 23:28:44: 40.71% completed...
2017-06-19 23:28:44: 45.80% completed...
2017-06-19 23:28:45: 50.89% completed...
2017-06-19 23:28:45: 55.98% completed...
2017-06-19 23:28:45: 61.07% completed...
2017-06-19 23:28:45: 66.16% completed...
2017-06-19 23:28:45: 71.25% completed...
2017-06-19 23:28:45: 76.34% completed...
2017-06-19 23:28:45: 81.42% completed...
2017-06-19 23:28:45: 86.51% completed...
2017-06-19 23:28:45: 91.60% completed...
2017-06-19 23:28:46: 96.69% completed...
2017-06-19 23:28:46: 100.00% completed.
2017-06-19 23:28:46: End of calculation.
2017-06-19 23:28:46: Total calculation time: 2764 ms.
done
computing RF ...
(standard_in) 2: syntax error
done
All done!
