pruning ...
done
computing MS ...
TreeCmp version 1.0-b291

Active options:
Type of the analysis:  one-to-all comparison mode (-r)
Metrics:
  1. MatchingSplit (ms)
Input file: ../gene_trees/randprune/xen.rs.gt.randprune.0.075.trees
Output file: ../results/xen.rs.randprune.0.075.MS.dat
Additional options:
P - Prune compared trees if needed (trees can have different leaf sets).
-----
2017-06-19 23:28:21: Start of scanning input file: ../gene_trees/randprune/xen.rs.gt.randprune.0.075.trees
2017-06-19 23:28:22: End of scanning input file: ../gene_trees/randprune/xen.rs.gt.randprune.0.075.trees
2017-06-19 23:28:22: 393 valid trees found in file: ../gene_trees/randprune/xen.rs.gt.randprune.0.075.trees
2017-06-19 23:28:22: Start of calculation...please wait...
2017-06-19 23:28:22: 0.00% completed...
2017-06-19 23:28:23: 5.09% completed...
2017-06-19 23:28:23: 10.18% completed...
2017-06-19 23:28:23: 15.27% completed...
2017-06-19 23:28:23: 20.36% completed...
2017-06-19 23:28:23: 25.45% completed...
2017-06-19 23:28:24: 30.53% completed...
2017-06-19 23:28:24: 35.62% completed...
2017-06-19 23:28:24: 40.71% completed...
2017-06-19 23:28:24: 45.80% completed...
2017-06-19 23:28:24: 50.89% completed...
2017-06-19 23:28:24: 55.98% completed...
2017-06-19 23:28:24: 61.07% completed...
2017-06-19 23:28:25: 66.16% completed...
2017-06-19 23:28:25: 71.25% completed...
2017-06-19 23:28:25: 76.34% completed...
2017-06-19 23:28:25: 81.42% completed...
2017-06-19 23:28:25: 86.51% completed...
2017-06-19 23:28:25: 91.60% completed...
2017-06-19 23:28:25: 96.69% completed...
2017-06-19 23:28:25: 100.00% completed.
2017-06-19 23:28:25: End of calculation.
2017-06-19 23:28:25: Total calculation time: 3023 ms.
done
computing RF ...
done
All done!
