pruning ...
done
computing MS ...
TreeCmp version 1.0-b291

Active options:
Type of the analysis:  one-to-all comparison mode (-r)
Metrics:
  1. MatchingSplit (ms)
Input file: ../gene_trees/randprune/xen.rs.gt.randprune.0.065.trees
Output file: ../results/xen.rs.randprune.0.065.MS.dat
Additional options:
P - Prune compared trees if needed (trees can have different leaf sets).
-----
2017-06-19 23:28:13: Start of scanning input file: ../gene_trees/randprune/xen.rs.gt.randprune.0.065.trees
2017-06-19 23:28:14: End of scanning input file: ../gene_trees/randprune/xen.rs.gt.randprune.0.065.trees
2017-06-19 23:28:14: 393 valid trees found in file: ../gene_trees/randprune/xen.rs.gt.randprune.0.065.trees
2017-06-19 23:28:14: Start of calculation...please wait...
2017-06-19 23:28:14: 0.00% completed...
2017-06-19 23:28:15: 5.09% completed...
2017-06-19 23:28:15: 10.18% completed...
2017-06-19 23:28:15: 15.27% completed...
2017-06-19 23:28:16: 20.36% completed...
2017-06-19 23:28:16: 25.45% completed...
2017-06-19 23:28:16: 30.53% completed...
2017-06-19 23:28:16: 35.62% completed...
2017-06-19 23:28:16: 40.71% completed...
2017-06-19 23:28:16: 45.80% completed...
2017-06-19 23:28:17: 50.89% completed...
2017-06-19 23:28:17: 55.98% completed...
2017-06-19 23:28:17: 61.07% completed...
2017-06-19 23:28:17: 66.16% completed...
2017-06-19 23:28:17: 71.25% completed...
2017-06-19 23:28:17: 76.34% completed...
2017-06-19 23:28:17: 81.42% completed...
2017-06-19 23:28:17: 86.51% completed...
2017-06-19 23:28:17: 91.60% completed...
2017-06-19 23:28:18: 96.69% completed...
2017-06-19 23:28:18: 100.00% completed.
2017-06-19 23:28:18: End of calculation.
2017-06-19 23:28:18: Total calculation time: 3170 ms.
done
computing RF ...
done
All done!
