pruning ...
done
computing MS ...
TreeCmp version 1.0-b291

Active options:
Type of the analysis:  one-to-all comparison mode (-r)
Metrics:
  1. MatchingSplit (ms)
Input file: ../gene_trees/randprune/xen.can.gt.randprune.0.035.trees
Output file: ../results/xen.can.randprune.0.035.MS.dat
Additional options:
P - Prune compared trees if needed (trees can have different leaf sets).
-----
2017-06-19 22:38:30: Start of scanning input file: ../gene_trees/randprune/xen.can.gt.randprune.0.035.trees
2017-06-19 22:38:33: End of scanning input file: ../gene_trees/randprune/xen.can.gt.randprune.0.035.trees
2017-06-19 22:38:33: 212 valid trees found in file: ../gene_trees/randprune/xen.can.gt.randprune.0.035.trees
2017-06-19 22:38:33: Start of calculation...please wait...
2017-06-19 22:38:33: 0.00% completed...
2017-06-19 22:38:34: 5.19% completed...
2017-06-19 22:38:35: 10.38% completed...
2017-06-19 22:38:35: 15.57% completed...
2017-06-19 22:38:36: 20.75% completed...
2017-06-19 22:38:36: 25.94% completed...
2017-06-19 22:38:36: 31.13% completed...
2017-06-19 22:38:37: 36.32% completed...
2017-06-19 22:38:37: 41.51% completed...
2017-06-19 22:38:37: 46.70% completed...
2017-06-19 22:38:38: 51.89% completed...
2017-06-19 22:38:38: 57.08% completed...
2017-06-19 22:38:39: 62.26% completed...
2017-06-19 22:38:39: 67.45% completed...
2017-06-19 22:38:39: 72.64% completed...
2017-06-19 22:38:39: 77.83% completed...
2017-06-19 22:38:40: 83.02% completed...
2017-06-19 22:38:40: 88.21% completed...
2017-06-19 22:38:40: 93.40% completed...
2017-06-19 22:38:41: 98.58% completed...
2017-06-19 22:38:41: 100.00% completed.
2017-06-19 22:38:41: End of calculation.
2017-06-19 22:38:41: Total calculation time: 7659 ms.
done
computing RF ...
done
All done!
