pruning ...
done
computing MS ...
TreeCmp version 1.0-b291

Active options:
Type of the analysis:  one-to-all comparison mode (-r)
Metrics:
  1. MatchingSplit (ms)
Input file: ../gene_trees/randprune/xen.can.gt.randprune.0.130.trees
Output file: ../results/xen.can.randprune.0.130.MS.dat
Additional options:
P - Prune compared trees if needed (trees can have different leaf sets).
-----
2017-06-19 22:40:10: Start of scanning input file: ../gene_trees/randprune/xen.can.gt.randprune.0.130.trees
2017-06-19 22:40:13: End of scanning input file: ../gene_trees/randprune/xen.can.gt.randprune.0.130.trees
2017-06-19 22:40:13: 212 valid trees found in file: ../gene_trees/randprune/xen.can.gt.randprune.0.130.trees
2017-06-19 22:40:13: Start of calculation...please wait...
2017-06-19 22:40:13: 0.00% completed...
2017-06-19 22:40:15: 5.19% completed...
2017-06-19 22:40:16: 10.38% completed...
2017-06-19 22:40:16: 15.57% completed...
2017-06-19 22:40:17: 20.75% completed...
2017-06-19 22:40:17: 25.94% completed...
2017-06-19 22:40:17: 31.13% completed...
2017-06-19 22:40:17: 36.32% completed...
2017-06-19 22:40:18: 41.51% completed...
2017-06-19 22:40:18: 46.70% completed...
2017-06-19 22:40:18: 51.89% completed...
2017-06-19 22:40:19: 57.08% completed...
2017-06-19 22:40:19: 62.26% completed...
2017-06-19 22:40:19: 67.45% completed...
2017-06-19 22:40:19: 72.64% completed...
2017-06-19 22:40:20: 77.83% completed...
2017-06-19 22:40:20: 83.02% completed...
2017-06-19 22:40:20: 88.21% completed...
2017-06-19 22:40:20: 93.40% completed...
2017-06-19 22:40:21: 98.58% completed...
2017-06-19 22:40:21: 100.00% completed.
2017-06-19 22:40:21: End of calculation.
2017-06-19 22:40:21: Total calculation time: 7241 ms.
done
computing RF ...
done
All done!
