pruning ...
done
computing MS ...
TreeCmp version 1.0-b291

Active options:
Type of the analysis:  one-to-all comparison mode (-r)
Metrics:
  1. MatchingSplit (ms)
Input file: ../gene_trees/randprune/xen.can.gt.randprune.0.055.trees
Output file: ../results/xen.can.randprune.0.055.MS.dat
Additional options:
P - Prune compared trees if needed (trees can have different leaf sets).
-----
2017-06-19 22:39:01: Start of scanning input file: ../gene_trees/randprune/xen.can.gt.randprune.0.055.trees
2017-06-19 22:39:04: End of scanning input file: ../gene_trees/randprune/xen.can.gt.randprune.0.055.trees
2017-06-19 22:39:04: 212 valid trees found in file: ../gene_trees/randprune/xen.can.gt.randprune.0.055.trees
2017-06-19 22:39:04: Start of calculation...please wait...
2017-06-19 22:39:04: 0.00% completed...
2017-06-19 22:39:06: 5.19% completed...
2017-06-19 22:39:07: 10.38% completed...
2017-06-19 22:39:07: 15.57% completed...
2017-06-19 22:39:08: 20.75% completed...
2017-06-19 22:39:08: 25.94% completed...
2017-06-19 22:39:09: 31.13% completed...
2017-06-19 22:39:09: 36.32% completed...
2017-06-19 22:39:09: 41.51% completed...
2017-06-19 22:39:10: 46.70% completed...
2017-06-19 22:39:10: 51.89% completed...
2017-06-19 22:39:11: 57.08% completed...
2017-06-19 22:39:11: 62.26% completed...
2017-06-19 22:39:11: 67.45% completed...
2017-06-19 22:39:12: 72.64% completed...
2017-06-19 22:39:12: 77.83% completed...
2017-06-19 22:39:12: 83.02% completed...
2017-06-19 22:39:13: 88.21% completed...
2017-06-19 22:39:13: 93.40% completed...
2017-06-19 22:39:13: 98.58% completed...
2017-06-19 22:39:13: 100.00% completed.
2017-06-19 22:39:13: End of calculation.
2017-06-19 22:39:13: Total calculation time: 8789 ms.
done
computing RF ...
done
All done!
