pruning
compute MS
TreeCmp version 1.0-b291

Active options:
Type of the analysis:  one-to-all comparison mode (-r)
Metrics:
  1. MatchingSplit (ms)
Input file: ../gene_trees/rooted_pruning/xen.rs.gt.trees.3.86.trees
Output file: ../results/xen.rs.trees.3.86.MS.dat
Additional options:
P - Prune compared trees if needed (trees can have different leaf sets).
-----
2017-06-19 23:35:00: Start of scanning input file: ../gene_trees/rooted_pruning/xen.rs.gt.trees.3.86.trees
2017-06-19 23:35:01: End of scanning input file: ../gene_trees/rooted_pruning/xen.rs.gt.trees.3.86.trees
2017-06-19 23:35:01: 393 valid trees found in file: ../gene_trees/rooted_pruning/xen.rs.gt.trees.3.86.trees
2017-06-19 23:35:01: Start of calculation...please wait...
2017-06-19 23:35:01: 0.00% completed...
2017-06-19 23:35:02: 5.09% completed...
2017-06-19 23:35:02: 10.18% completed...
2017-06-19 23:35:02: 15.27% completed...
2017-06-19 23:35:02: 20.36% completed...
2017-06-19 23:35:02: 25.45% completed...
2017-06-19 23:35:02: 30.53% completed...
2017-06-19 23:35:02: 35.62% completed...
2017-06-19 23:35:02: 40.71% completed...
2017-06-19 23:35:02: 45.80% completed...
2017-06-19 23:35:02: 50.89% completed...
2017-06-19 23:35:02: 55.98% completed...
2017-06-19 23:35:02: 61.07% completed...
2017-06-19 23:35:02: 66.16% completed...
2017-06-19 23:35:03: 71.25% completed...
2017-06-19 23:35:03: 76.34% completed...
2017-06-19 23:35:03: 81.42% completed...
2017-06-19 23:35:03: 86.51% completed...
2017-06-19 23:35:03: 91.60% completed...
2017-06-19 23:35:03: 96.69% completed...
2017-06-19 23:35:03: 100.00% completed.
2017-06-19 23:35:03: End of calculation.
2017-06-19 23:35:03: Total calculation time: 1484 ms.
compute RF
