pruning ...
done
computing MS ...
TreeCmp version 1.0-b291

Active options:
Type of the analysis:  one-to-all comparison mode (-r)
Metrics:
  1. MatchingSplit (ms)
Input file: ../gene_trees/randprune/xen.can.gt.randprune.0.040.trees
Output file: ../results/xen.can.randprune.0.040.MS.dat
Additional options:
P - Prune compared trees if needed (trees can have different leaf sets).
-----
2017-06-19 22:38:36: Start of scanning input file: ../gene_trees/randprune/xen.can.gt.randprune.0.040.trees
2017-06-19 22:38:38: End of scanning input file: ../gene_trees/randprune/xen.can.gt.randprune.0.040.trees
2017-06-19 22:38:38: 212 valid trees found in file: ../gene_trees/randprune/xen.can.gt.randprune.0.040.trees
2017-06-19 22:38:38: Start of calculation...please wait...
2017-06-19 22:38:39: 0.00% completed...
2017-06-19 22:38:40: 5.19% completed...
2017-06-19 22:38:40: 10.38% completed...
2017-06-19 22:38:41: 15.57% completed...
2017-06-19 22:38:41: 20.75% completed...
2017-06-19 22:38:41: 25.94% completed...
2017-06-19 22:38:41: 31.13% completed...
2017-06-19 22:38:42: 36.32% completed...
2017-06-19 22:38:42: 41.51% completed...
2017-06-19 22:38:42: 46.70% completed...
2017-06-19 22:38:43: 51.89% completed...
2017-06-19 22:38:43: 57.08% completed...
2017-06-19 22:38:43: 62.26% completed...
2017-06-19 22:38:43: 67.45% completed...
2017-06-19 22:38:44: 72.64% completed...
2017-06-19 22:38:44: 77.83% completed...
2017-06-19 22:38:44: 83.02% completed...
2017-06-19 22:38:44: 88.21% completed...
2017-06-19 22:38:44: 93.40% completed...
2017-06-19 22:38:45: 98.58% completed...
2017-06-19 22:38:45: 100.00% completed.
2017-06-19 22:38:45: End of calculation.
2017-06-19 22:38:45: Total calculation time: 6250 ms.
done
computing RF ...
done
All done!
