pruning
compute MS
TreeCmp version 1.0-b291

Active options:
Type of the analysis:  one-to-all comparison mode (-r)
Metrics:
  1. MatchingSplit (ms)
Input file: ../gene_trees/rooted_pruning/xen.rs.gt.trees.3.56.trees
Output file: ../results/xen.rs.trees.3.56.MS.dat
Additional options:
P - Prune compared trees if needed (trees can have different leaf sets).
-----
2017-06-19 23:34:54: Start of scanning input file: ../gene_trees/rooted_pruning/xen.rs.gt.trees.3.56.trees
2017-06-19 23:34:56: End of scanning input file: ../gene_trees/rooted_pruning/xen.rs.gt.trees.3.56.trees
2017-06-19 23:34:56: 393 valid trees found in file: ../gene_trees/rooted_pruning/xen.rs.gt.trees.3.56.trees
2017-06-19 23:34:56: Start of calculation...please wait...
2017-06-19 23:34:56: 0.00% completed...
2017-06-19 23:34:57: 5.09% completed...
2017-06-19 23:34:57: 10.18% completed...
2017-06-19 23:34:57: 15.27% completed...
2017-06-19 23:34:57: 20.36% completed...
2017-06-19 23:34:58: 25.45% completed...
2017-06-19 23:34:58: 30.53% completed...
2017-06-19 23:34:58: 35.62% completed...
2017-06-19 23:34:58: 40.71% completed...
2017-06-19 23:34:58: 45.80% completed...
2017-06-19 23:34:58: 50.89% completed...
2017-06-19 23:34:59: 55.98% completed...
2017-06-19 23:34:59: 61.07% completed...
2017-06-19 23:34:59: 66.16% completed...
2017-06-19 23:34:59: 71.25% completed...
2017-06-19 23:34:59: 76.34% completed...
2017-06-19 23:34:59: 81.42% completed...
2017-06-19 23:34:59: 86.51% completed...
2017-06-19 23:34:59: 91.60% completed...
2017-06-19 23:34:59: 96.69% completed...
2017-06-19 23:34:59: 100.00% completed.
2017-06-19 23:34:59: End of calculation.
2017-06-19 23:34:59: Total calculation time: 3581 ms.
compute RF
