pruning ...
done
computing MS ...
TreeCmp version 1.0-b291

Active options:
Type of the analysis:  one-to-all comparison mode (-r)
Metrics:
  1. MatchingSplit (ms)
Input file: ../gene_trees/randprune/xen.can.gt.randprune.0.015.trees
Output file: ../results/xen.can.randprune.0.015.MS.dat
Additional options:
P - Prune compared trees if needed (trees can have different leaf sets).
-----
2017-06-19 22:38:03: Start of scanning input file: ../gene_trees/randprune/xen.can.gt.randprune.0.015.trees
2017-06-19 22:38:06: End of scanning input file: ../gene_trees/randprune/xen.can.gt.randprune.0.015.trees
2017-06-19 22:38:06: 212 valid trees found in file: ../gene_trees/randprune/xen.can.gt.randprune.0.015.trees
2017-06-19 22:38:06: Start of calculation...please wait...
2017-06-19 22:38:06: 0.00% completed...
2017-06-19 22:38:07: 5.19% completed...
2017-06-19 22:38:07: 10.38% completed...
2017-06-19 22:38:08: 15.57% completed...
2017-06-19 22:38:08: 20.75% completed...
2017-06-19 22:38:08: 25.94% completed...
2017-06-19 22:38:09: 31.13% completed...
2017-06-19 22:38:09: 36.32% completed...
2017-06-19 22:38:09: 41.51% completed...
2017-06-19 22:38:09: 46.70% completed...
2017-06-19 22:38:10: 51.89% completed...
2017-06-19 22:38:10: 57.08% completed...
2017-06-19 22:38:10: 62.26% completed...
2017-06-19 22:38:10: 67.45% completed...
2017-06-19 22:38:10: 72.64% completed...
2017-06-19 22:38:11: 77.83% completed...
2017-06-19 22:38:11: 83.02% completed...
2017-06-19 22:38:11: 88.21% completed...
2017-06-19 22:38:11: 93.40% completed...
2017-06-19 22:38:12: 98.58% completed...
2017-06-19 22:38:12: 100.00% completed.
2017-06-19 22:38:12: End of calculation.
2017-06-19 22:38:12: Total calculation time: 6004 ms.
done
computing RF ...
done
All done!
