TreeCmp version 1.0-b291

Active options:
Type of the analysis:  one-to-all comparison mode (-r)
Metrics:
  1. MatchingSplit (ms)
Input file: ../gene_trees/rogueNarok/xen.can.RnR.0.trees
Output file: ../results/xen.can.RnR.0.MS.dat
Additional options:
P - Prune compared trees if needed (trees can have different leaf sets).
-----
2017-06-20 13:50:36: Start of scanning input file: ../gene_trees/rogueNarok/xen.can.RnR.0.trees
2017-06-20 13:50:36: End of scanning input file: ../gene_trees/rogueNarok/xen.can.RnR.0.trees
2017-06-20 13:50:36: 0 valid trees found in file: ../gene_trees/rogueNarok/xen.can.RnR.0.trees
2017-06-20 13:50:36: Start of calculation...please wait...
2017-06-20 13:50:36: 0.00% completed...
expr: syntax error
(standard_in) 2: parse error
expr: syntax error
(standard_in) 2: parse error
expr: syntax error
(standard_in) 2: parse error
expr: syntax error
(standard_in) 2: parse error
expr: syntax error
(standard_in) 2: parse error
expr: syntax error
(standard_in) 2: parse error
expr: syntax error
(standard_in) 2: parse error
expr: syntax error
(standard_in) 2: parse error
expr: syntax error
(standard_in) 2: parse error
expr: syntax error
(standard_in) 2: parse error
expr: syntax error
(standard_in) 2: parse error
expr: syntax error
(standard_in) 2: parse error
expr: syntax error
(standard_in) 2: parse error
expr: syntax error
(standard_in) 2: parse error
expr: syntax error
(standard_in) 2: parse error
expr: syntax error
(standard_in) 2: parse error
expr: syntax error
(standard_in) 2: parse error
expr: syntax error
(standard_in) 2: parse error
expr: syntax error
(standard_in) 2: parse error
expr: syntax error
(standard_in) 2: parse error
expr: syntax error
(standard_in) 2: parse error
expr: syntax error
(standard_in) 2: parse error
expr: syntax error
(standard_in) 2: parse error
expr: syntax error
(standard_in) 2: parse error
expr: syntax error
(standard_in) 2: parse error
expr: syntax error
(standard_in) 2: parse error
expr: syntax error
(standard_in) 2: parse error
expr: syntax error
(standard_in) 2: parse error
expr: syntax error
(standard_in) 2: parse error
expr: syntax error
(standard_in) 2: parse error
expr: syntax error
(standard_in) 2: parse error
expr: syntax error
(standard_in) 2: parse error
expr: syntax error
(standard_in) 2: parse error
expr: syntax error
(standard_in) 2: parse error
expr: syntax error
(standard_in) 2: parse error
expr: syntax error
(standard_in) 2: parse error
expr: syntax error
(standard_in) 2: parse error
expr: syntax error
(standard_in) 2: parse error
expr: syntax error
(standard_in) 2: parse error
expr: syntax error
(standard_in) 2: parse error
expr: syntax error
(standard_in) 2: parse error
expr: syntax error
(standard_in) 2: parse error
expr: syntax error
(standard_in) 2: parse error
expr: syntax error
(standard_in) 2: parse error
expr: syntax error
(standard_in) 2: parse error
expr: syntax error
(standard_in) 2: parse error
expr: syntax error
(standard_in) 2: parse error
expr: syntax error
(standard_in) 2: parse error
expr: syntax error
(standard_in) 2: parse error
expr: syntax error
(standard_in) 2: parse error
expr: syntax error
(standard_in) 2: parse error
expr: syntax error
(standard_in) 2: parse error
expr: syntax error
(standard_in) 2: parse error
expr: syntax error
(standard_in) 2: parse error
expr: syntax error
(standard_in) 2: parse error
expr: syntax error
(standard_in) 2: parse error
expr: syntax error
(standard_in) 2: parse error
expr: syntax error
(standard_in) 2: parse error
expr: syntax error
(standard_in) 2: parse error
expr: syntax error
(standard_in) 2: parse error
expr: syntax error
(standard_in) 2: parse error
expr: syntax error
(standard_in) 2: parse error
expr: syntax error
(standard_in) 2: parse error
expr: syntax error
(standard_in) 2: parse error
expr: syntax error
(standard_in) 2: parse error
expr: syntax error
(standard_in) 2: parse error
expr: syntax error
(standard_in) 2: parse error
expr: syntax error
(standard_in) 2: parse error
expr: syntax error
(standard_in) 2: parse error
expr: syntax error
(standard_in) 2: parse error
expr: syntax error
(standard_in) 2: parse error
expr: syntax error
(standard_in) 2: parse error
expr: syntax error
(standard_in) 2: parse error
expr: syntax error
(standard_in) 2: parse error
expr: syntax error
(standard_in) 2: parse error
expr: syntax error
(standard_in) 2: parse error
expr: syntax error
(standard_in) 2: parse error
expr: syntax error
(standard_in) 2: parse error
expr: syntax error
(standard_in) 2: parse error
expr: syntax error
(standard_in) 2: parse error
expr: syntax error
(standard_in) 2: parse error
expr: syntax error
(standard_in) 2: parse error
expr: syntax error
(standard_in) 2: parse error
expr: syntax error
(standard_in) 2: parse error
expr: syntax error
(standard_in) 2: parse error
expr: syntax error
(standard_in) 2: parse error
expr: syntax error
(standard_in) 2: parse error
expr: syntax error
(standard_in) 2: parse error
expr: syntax error
(standard_in) 2: parse error
expr: syntax error
(standard_in) 2: parse error
expr: syntax error
(standard_in) 2: parse error
expr: syntax error
(standard_in) 2: parse error
expr: syntax error
(standard_in) 2: parse error
expr: syntax error
(standard_in) 2: parse error
expr: syntax error
(standard_in) 2: parse error
expr: syntax error
(standard_in) 2: parse error
expr: syntax error
(standard_in) 2: parse error
expr: syntax error
(standard_in) 2: parse error
expr: syntax error
(standard_in) 2: parse error
expr: syntax error
(standard_in) 2: parse error
expr: syntax error
(standard_in) 2: parse error
expr: syntax error
(standard_in) 2: parse error
expr: syntax error
(standard_in) 2: parse error
expr: syntax error
(standard_in) 2: parse error
expr: syntax error
(standard_in) 2: parse error
expr: syntax error
(standard_in) 2: parse error
expr: syntax error
(standard_in) 2: parse error
expr: syntax error
(standard_in) 2: parse error
expr: syntax error
(standard_in) 2: parse error
expr: syntax error
(standard_in) 2: parse error
expr: syntax error
(standard_in) 2: parse error
expr: syntax error
(standard_in) 2: parse error
expr: syntax error
(standard_in) 2: parse error
expr: syntax error
(standard_in) 2: parse error
expr: syntax error
(standard_in) 2: parse error
expr: syntax error
(standard_in) 2: parse error
