TreeCmp version 1.0-b291

Active options:
Type of the analysis:  one-to-all comparison mode (-r)
Metrics:
  1. MatchingSplit (ms)
Input file: ../gene_trees/rogueNarok/xen.rs.RnR.60.trees
Output file: ../results/xen.rs.RnR.60.MS.dat
Additional options:
P - Prune compared trees if needed (trees can have different leaf sets).
-----
2017-06-20 09:34:07: Start of scanning input file: ../gene_trees/rogueNarok/xen.rs.RnR.60.trees
2017-06-20 09:34:08: End of scanning input file: ../gene_trees/rogueNarok/xen.rs.RnR.60.trees
2017-06-20 09:34:08: 393 valid trees found in file: ../gene_trees/rogueNarok/xen.rs.RnR.60.trees
2017-06-20 09:34:08: Start of calculation...please wait...
2017-06-20 09:34:08: 0.00% completed...
2017-06-20 09:34:09: 5.09% completed...
2017-06-20 09:34:09: 10.18% completed...
2017-06-20 09:34:09: 15.27% completed...
2017-06-20 09:34:10: 20.36% completed...
2017-06-20 09:34:10: 25.45% completed...
2017-06-20 09:34:10: 30.53% completed...
2017-06-20 09:34:10: 35.62% completed...
2017-06-20 09:34:10: 40.71% completed...
2017-06-20 09:34:11: 45.80% completed...
2017-06-20 09:34:11: 50.89% completed...
2017-06-20 09:34:11: 55.98% completed...
2017-06-20 09:34:11: 61.07% completed...
2017-06-20 09:34:12: 66.16% completed...
2017-06-20 09:34:12: 71.25% completed...
2017-06-20 09:34:12: 76.34% completed...
2017-06-20 09:34:12: 81.42% completed...
2017-06-20 09:34:12: 86.51% completed...
2017-06-20 09:34:12: 91.60% completed...
2017-06-20 09:34:12: 96.69% completed...
2017-06-20 09:34:13: 100.00% completed.
2017-06-20 09:34:13: End of calculation.
2017-06-20 09:34:13: Total calculation time: 4178 ms.
