pruning ...
done
computing MS ...
TreeCmp version 1.0-b291

Active options:
Type of the analysis:  one-to-all comparison mode (-r)
Metrics:
  1. MatchingSplit (ms)
Input file: ../gene_trees/randprune/xen.rs.gt.randprune.0.120.trees
Output file: ../results/xen.rs.randprune.0.120.MS.dat
Additional options:
P - Prune compared trees if needed (trees can have different leaf sets).
-----
2017-06-19 23:28:51: Start of scanning input file: ../gene_trees/randprune/xen.rs.gt.randprune.0.120.trees
2017-06-19 23:28:53: End of scanning input file: ../gene_trees/randprune/xen.rs.gt.randprune.0.120.trees
2017-06-19 23:28:53: 393 valid trees found in file: ../gene_trees/randprune/xen.rs.gt.randprune.0.120.trees
2017-06-19 23:28:53: Start of calculation...please wait...
2017-06-19 23:28:53: 0.00% completed...
2017-06-19 23:28:53: 5.09% completed...
2017-06-19 23:28:53: 10.18% completed...
2017-06-19 23:28:53: 15.27% completed...
2017-06-19 23:28:53: 20.36% completed...
2017-06-19 23:28:54: 25.45% completed...
2017-06-19 23:28:54: 30.53% completed...
2017-06-19 23:28:54: 35.62% completed...
2017-06-19 23:28:54: 40.71% completed...
2017-06-19 23:28:54: 45.80% completed...
2017-06-19 23:28:54: 50.89% completed...
2017-06-19 23:28:54: 55.98% completed...
2017-06-19 23:28:54: 61.07% completed...
2017-06-19 23:28:55: 66.16% completed...
2017-06-19 23:28:55: 71.25% completed...
2017-06-19 23:28:55: 76.34% completed...
2017-06-19 23:28:55: 81.42% completed...
2017-06-19 23:28:55: 86.51% completed...
2017-06-19 23:28:55: 91.60% completed...
2017-06-19 23:28:55: 96.69% completed...
2017-06-19 23:28:55: 100.00% completed.
2017-06-19 23:28:55: End of calculation.
2017-06-19 23:28:55: Total calculation time: 2697 ms.
done
computing RF ...
(standard_in) 2: syntax error
done
All done!
