pruning ...
done
computing MS ...
TreeCmp version 1.0-b291

Active options:
Type of the analysis:  one-to-all comparison mode (-r)
Metrics:
  1. MatchingSplit (ms)
Input file: ../gene_trees/randprune/xen.can.gt.randprune.0.025.trees
Output file: ../results/xen.can.randprune.0.025.MS.dat
Additional options:
P - Prune compared trees if needed (trees can have different leaf sets).
-----
2017-06-19 22:38:17: Start of scanning input file: ../gene_trees/randprune/xen.can.gt.randprune.0.025.trees
2017-06-19 22:38:20: End of scanning input file: ../gene_trees/randprune/xen.can.gt.randprune.0.025.trees
2017-06-19 22:38:20: 212 valid trees found in file: ../gene_trees/randprune/xen.can.gt.randprune.0.025.trees
2017-06-19 22:38:20: Start of calculation...please wait...
2017-06-19 22:38:20: 0.00% completed...
2017-06-19 22:38:21: 5.19% completed...
2017-06-19 22:38:22: 10.38% completed...
2017-06-19 22:38:22: 15.57% completed...
2017-06-19 22:38:23: 20.75% completed...
2017-06-19 22:38:23: 25.94% completed...
2017-06-19 22:38:23: 31.13% completed...
2017-06-19 22:38:23: 36.32% completed...
2017-06-19 22:38:24: 41.51% completed...
2017-06-19 22:38:24: 46.70% completed...
2017-06-19 22:38:24: 51.89% completed...
2017-06-19 22:38:24: 57.08% completed...
2017-06-19 22:38:24: 62.26% completed...
2017-06-19 22:38:25: 67.45% completed...
2017-06-19 22:38:25: 72.64% completed...
2017-06-19 22:38:25: 77.83% completed...
2017-06-19 22:38:25: 83.02% completed...
2017-06-19 22:38:26: 88.21% completed...
2017-06-19 22:38:26: 93.40% completed...
2017-06-19 22:38:26: 98.58% completed...
2017-06-19 22:38:26: 100.00% completed.
2017-06-19 22:38:26: End of calculation.
2017-06-19 22:38:26: Total calculation time: 6199 ms.
done
computing RF ...
done
All done!
