pruning ...
done
computing MS ...
TreeCmp version 1.0-b291

Active options:
Type of the analysis:  one-to-all comparison mode (-r)
Metrics:
  1. MatchingSplit (ms)
Input file: ../gene_trees/randprune/xen.can.gt.randprune.0.045.trees
Output file: ../results/xen.can.randprune.0.045.MS.dat
Additional options:
P - Prune compared trees if needed (trees can have different leaf sets).
-----
2017-06-19 22:38:43: Start of scanning input file: ../gene_trees/randprune/xen.can.gt.randprune.0.045.trees
2017-06-19 22:38:47: End of scanning input file: ../gene_trees/randprune/xen.can.gt.randprune.0.045.trees
2017-06-19 22:38:47: 212 valid trees found in file: ../gene_trees/randprune/xen.can.gt.randprune.0.045.trees
2017-06-19 22:38:47: Start of calculation...please wait...
2017-06-19 22:38:47: 0.00% completed...
2017-06-19 22:38:48: 5.19% completed...
2017-06-19 22:38:49: 10.38% completed...
2017-06-19 22:38:50: 15.57% completed...
2017-06-19 22:38:50: 20.75% completed...
2017-06-19 22:38:51: 25.94% completed...
2017-06-19 22:38:51: 31.13% completed...
2017-06-19 22:38:51: 36.32% completed...
2017-06-19 22:38:52: 41.51% completed...
2017-06-19 22:38:52: 46.70% completed...
2017-06-19 22:38:52: 51.89% completed...
2017-06-19 22:38:52: 57.08% completed...
2017-06-19 22:38:53: 62.26% completed...
2017-06-19 22:38:53: 67.45% completed...
2017-06-19 22:38:53: 72.64% completed...
2017-06-19 22:38:53: 77.83% completed...
2017-06-19 22:38:54: 83.02% completed...
2017-06-19 22:38:54: 88.21% completed...
2017-06-19 22:38:54: 93.40% completed...
2017-06-19 22:38:54: 98.58% completed...
2017-06-19 22:38:54: 100.00% completed.
2017-06-19 22:38:54: End of calculation.
2017-06-19 22:38:54: Total calculation time: 7284 ms.
done
computing RF ...
done
All done!
