pruning ...
done
computing MS ...
TreeCmp version 1.0-b291

Active options:
Type of the analysis:  one-to-all comparison mode (-r)
Metrics:
  1. MatchingSplit (ms)
Input file: ../gene_trees/randprune/xen.rs.gt.randprune.0.020.trees
Output file: ../results/xen.rs.randprune.0.020.MS.dat
Additional options:
P - Prune compared trees if needed (trees can have different leaf sets).
-----
2017-06-19 23:27:35: Start of scanning input file: ../gene_trees/randprune/xen.rs.gt.randprune.0.020.trees
2017-06-19 23:27:36: End of scanning input file: ../gene_trees/randprune/xen.rs.gt.randprune.0.020.trees
2017-06-19 23:27:36: 393 valid trees found in file: ../gene_trees/randprune/xen.rs.gt.randprune.0.020.trees
2017-06-19 23:27:36: Start of calculation...please wait...
2017-06-19 23:27:36: 0.00% completed...
2017-06-19 23:27:37: 5.09% completed...
2017-06-19 23:27:37: 10.18% completed...
2017-06-19 23:27:37: 15.27% completed...
2017-06-19 23:27:37: 20.36% completed...
2017-06-19 23:27:38: 25.45% completed...
2017-06-19 23:27:38: 30.53% completed...
2017-06-19 23:27:38: 35.62% completed...
2017-06-19 23:27:38: 40.71% completed...
2017-06-19 23:27:38: 45.80% completed...
2017-06-19 23:27:38: 50.89% completed...
2017-06-19 23:27:39: 55.98% completed...
2017-06-19 23:27:39: 61.07% completed...
2017-06-19 23:27:39: 66.16% completed...
2017-06-19 23:27:39: 71.25% completed...
2017-06-19 23:27:39: 76.34% completed...
2017-06-19 23:27:39: 81.42% completed...
2017-06-19 23:27:39: 86.51% completed...
2017-06-19 23:27:39: 91.60% completed...
2017-06-19 23:27:39: 96.69% completed...
2017-06-19 23:27:39: 100.00% completed.
2017-06-19 23:27:39: End of calculation.
2017-06-19 23:27:39: Total calculation time: 2940 ms.
done
computing RF ...
done
All done!
