pruning ...
done
computing MS ...
TreeCmp version 1.0-b291

Active options:
Type of the analysis:  one-to-all comparison mode (-r)
Metrics:
  1. MatchingSplit (ms)
Input file: ../gene_trees/randprune/xen.rs.gt.randprune.0.035.trees
Output file: ../results/xen.rs.randprune.0.035.MS.dat
Additional options:
P - Prune compared trees if needed (trees can have different leaf sets).
-----
2017-06-19 23:27:47: Start of scanning input file: ../gene_trees/randprune/xen.rs.gt.randprune.0.035.trees
2017-06-19 23:27:48: End of scanning input file: ../gene_trees/randprune/xen.rs.gt.randprune.0.035.trees
2017-06-19 23:27:48: 393 valid trees found in file: ../gene_trees/randprune/xen.rs.gt.randprune.0.035.trees
2017-06-19 23:27:48: Start of calculation...please wait...
2017-06-19 23:27:48: 0.00% completed...
2017-06-19 23:27:49: 5.09% completed...
2017-06-19 23:27:49: 10.18% completed...
2017-06-19 23:27:49: 15.27% completed...
2017-06-19 23:27:49: 20.36% completed...
2017-06-19 23:27:50: 25.45% completed...
2017-06-19 23:27:50: 30.53% completed...
2017-06-19 23:27:50: 35.62% completed...
2017-06-19 23:27:50: 40.71% completed...
2017-06-19 23:27:50: 45.80% completed...
2017-06-19 23:27:50: 50.89% completed...
2017-06-19 23:27:50: 55.98% completed...
2017-06-19 23:27:50: 61.07% completed...
2017-06-19 23:27:51: 66.16% completed...
2017-06-19 23:27:51: 71.25% completed...
2017-06-19 23:27:51: 76.34% completed...
2017-06-19 23:27:51: 81.42% completed...
2017-06-19 23:27:51: 86.51% completed...
2017-06-19 23:27:51: 91.60% completed...
2017-06-19 23:27:51: 96.69% completed...
2017-06-19 23:27:51: 100.00% completed.
2017-06-19 23:27:51: End of calculation.
2017-06-19 23:27:51: Total calculation time: 2573 ms.
done
computing RF ...
done
All done!
