pruning ...
done
computing MS ...
TreeCmp version 1.0-b291

Active options:
Type of the analysis:  one-to-all comparison mode (-r)
Metrics:
  1. MatchingSplit (ms)
Input file: ../gene_trees/randprune/xen.rs.gt.randprune.0.030.trees
Output file: ../results/xen.rs.randprune.0.030.MS.dat
Additional options:
P - Prune compared trees if needed (trees can have different leaf sets).
-----
2017-06-19 23:27:42: Start of scanning input file: ../gene_trees/randprune/xen.rs.gt.randprune.0.030.trees
2017-06-19 23:27:44: End of scanning input file: ../gene_trees/randprune/xen.rs.gt.randprune.0.030.trees
2017-06-19 23:27:44: 393 valid trees found in file: ../gene_trees/randprune/xen.rs.gt.randprune.0.030.trees
2017-06-19 23:27:44: Start of calculation...please wait...
2017-06-19 23:27:44: 0.00% completed...
2017-06-19 23:27:44: 5.09% completed...
2017-06-19 23:27:45: 10.18% completed...
2017-06-19 23:27:45: 15.27% completed...
2017-06-19 23:27:45: 20.36% completed...
2017-06-19 23:27:45: 25.45% completed...
2017-06-19 23:27:45: 30.53% completed...
2017-06-19 23:27:45: 35.62% completed...
2017-06-19 23:27:46: 40.71% completed...
2017-06-19 23:27:46: 45.80% completed...
2017-06-19 23:27:46: 50.89% completed...
2017-06-19 23:27:46: 55.98% completed...
2017-06-19 23:27:46: 61.07% completed...
2017-06-19 23:27:46: 66.16% completed...
2017-06-19 23:27:46: 71.25% completed...
2017-06-19 23:27:46: 76.34% completed...
2017-06-19 23:27:47: 81.42% completed...
2017-06-19 23:27:47: 86.51% completed...
2017-06-19 23:27:47: 91.60% completed...
2017-06-19 23:27:47: 96.69% completed...
2017-06-19 23:27:47: 100.00% completed.
2017-06-19 23:27:47: End of calculation.
2017-06-19 23:27:47: Total calculation time: 2874 ms.
done
computing RF ...
done
All done!
