pruning ...
done
computing MS ...
TreeCmp version 1.0-b291

Active options:
Type of the analysis:  one-to-all comparison mode (-r)
Metrics:
  1. MatchingSplit (ms)
Input file: ../gene_trees/randprune/xen.rs.gt.randprune.0.150.trees
Output file: ../results/xen.rs.randprune.0.150.MS.dat
Additional options:
P - Prune compared trees if needed (trees can have different leaf sets).
-----
2017-06-19 23:29:07: Start of scanning input file: ../gene_trees/randprune/xen.rs.gt.randprune.0.150.trees
2017-06-19 23:29:08: End of scanning input file: ../gene_trees/randprune/xen.rs.gt.randprune.0.150.trees
2017-06-19 23:29:08: 393 valid trees found in file: ../gene_trees/randprune/xen.rs.gt.randprune.0.150.trees
2017-06-19 23:29:08: Start of calculation...please wait...
2017-06-19 23:29:08: 0.00% completed...
2017-06-19 23:29:09: 5.09% completed...
2017-06-19 23:29:09: 10.18% completed...
2017-06-19 23:29:09: 15.27% completed...
2017-06-19 23:29:09: 20.36% completed...
2017-06-19 23:29:09: 25.45% completed...
2017-06-19 23:29:10: 30.53% completed...
2017-06-19 23:29:10: 35.62% completed...
2017-06-19 23:29:10: 40.71% completed...
2017-06-19 23:29:10: 45.80% completed...
2017-06-19 23:29:10: 50.89% completed...
2017-06-19 23:29:10: 55.98% completed...
2017-06-19 23:29:10: 61.07% completed...
2017-06-19 23:29:10: 66.16% completed...
2017-06-19 23:29:11: 71.25% completed...
2017-06-19 23:29:11: 76.34% completed...
2017-06-19 23:29:11: 81.42% completed...
2017-06-19 23:29:11: 86.51% completed...
2017-06-19 23:29:11: 91.60% completed...
2017-06-19 23:29:11: 96.69% completed...
2017-06-19 23:29:11: 100.00% completed.
2017-06-19 23:29:11: End of calculation.
2017-06-19 23:29:11: Total calculation time: 2731 ms.
done
computing RF ...
(standard_in) 2: syntax error
(standard_in) 2: syntax error
done
All done!
