pruning ...
done
computing MS ...
TreeCmp version 1.0-b291

Active options:
Type of the analysis:  one-to-all comparison mode (-r)
Metrics:
  1. MatchingSplit (ms)
Input file: ../gene_trees/randprune/xen.can.gt.randprune.0.070.trees
Output file: ../results/xen.can.randprune.0.070.MS.dat
Additional options:
P - Prune compared trees if needed (trees can have different leaf sets).
-----
2017-06-19 22:39:12: Start of scanning input file: ../gene_trees/randprune/xen.can.gt.randprune.0.070.trees
2017-06-19 22:39:16: End of scanning input file: ../gene_trees/randprune/xen.can.gt.randprune.0.070.trees
2017-06-19 22:39:16: 212 valid trees found in file: ../gene_trees/randprune/xen.can.gt.randprune.0.070.trees
2017-06-19 22:39:16: Start of calculation...please wait...
2017-06-19 22:39:16: 0.00% completed...
2017-06-19 22:39:17: 5.19% completed...
2017-06-19 22:39:18: 10.38% completed...
2017-06-19 22:39:18: 15.57% completed...
2017-06-19 22:39:19: 20.75% completed...
2017-06-19 22:39:19: 25.94% completed...
2017-06-19 22:39:20: 31.13% completed...
2017-06-19 22:39:20: 36.32% completed...
2017-06-19 22:39:20: 41.51% completed...
2017-06-19 22:39:21: 46.70% completed...
2017-06-19 22:39:21: 51.89% completed...
2017-06-19 22:39:21: 57.08% completed...
2017-06-19 22:39:21: 62.26% completed...
2017-06-19 22:39:22: 67.45% completed...
2017-06-19 22:39:22: 72.64% completed...
2017-06-19 22:39:22: 77.83% completed...
2017-06-19 22:39:23: 83.02% completed...
2017-06-19 22:39:23: 88.21% completed...
2017-06-19 22:39:23: 93.40% completed...
2017-06-19 22:39:24: 98.58% completed...
2017-06-19 22:39:24: 100.00% completed.
2017-06-19 22:39:24: End of calculation.
2017-06-19 22:39:24: Total calculation time: 7862 ms.
done
computing RF ...
done
All done!
