pruning ...
done
computing MS ...
TreeCmp version 1.0-b291

Active options:
Type of the analysis:  one-to-all comparison mode (-r)
Metrics:
  1. MatchingSplit (ms)
Input file: ../gene_trees/randprune/xen.can.gt.randprune.0.150.trees
Output file: ../results/xen.can.randprune.0.150.MS.dat
Additional options:
P - Prune compared trees if needed (trees can have different leaf sets).
-----
2017-06-19 22:40:17: Start of scanning input file: ../gene_trees/randprune/xen.can.gt.randprune.0.150.trees
2017-06-19 22:40:21: End of scanning input file: ../gene_trees/randprune/xen.can.gt.randprune.0.150.trees
2017-06-19 22:40:21: 212 valid trees found in file: ../gene_trees/randprune/xen.can.gt.randprune.0.150.trees
2017-06-19 22:40:21: Start of calculation...please wait...
2017-06-19 22:40:21: 0.00% completed...
2017-06-19 22:40:22: 5.19% completed...
2017-06-19 22:40:23: 10.38% completed...
2017-06-19 22:40:23: 15.57% completed...
2017-06-19 22:40:24: 20.75% completed...
2017-06-19 22:40:24: 25.94% completed...
2017-06-19 22:40:24: 31.13% completed...
2017-06-19 22:40:25: 36.32% completed...
2017-06-19 22:40:25: 41.51% completed...
2017-06-19 22:40:25: 46.70% completed...
2017-06-19 22:40:25: 51.89% completed...
2017-06-19 22:40:26: 57.08% completed...
2017-06-19 22:40:26: 62.26% completed...
2017-06-19 22:40:26: 67.45% completed...
2017-06-19 22:40:26: 72.64% completed...
2017-06-19 22:40:27: 77.83% completed...
2017-06-19 22:40:27: 83.02% completed...
2017-06-19 22:40:27: 88.21% completed...
2017-06-19 22:40:27: 93.40% completed...
2017-06-19 22:40:27: 98.58% completed...
2017-06-19 22:40:28: 100.00% completed.
2017-06-19 22:40:28: End of calculation.
2017-06-19 22:40:28: Total calculation time: 6755 ms.
done
computing RF ...
done
All done!
