pruning ...
done
computing MS ...
TreeCmp version 1.0-b291

Active options:
Type of the analysis:  one-to-all comparison mode (-r)
Metrics:
  1. MatchingSplit (ms)
Input file: ../gene_trees/randprune/xen.can.gt.randprune.0.115.trees
Output file: ../results/xen.can.randprune.0.115.MS.dat
Additional options:
P - Prune compared trees if needed (trees can have different leaf sets).
-----
2017-06-19 22:39:55: Start of scanning input file: ../gene_trees/randprune/xen.can.gt.randprune.0.115.trees
2017-06-19 22:39:58: End of scanning input file: ../gene_trees/randprune/xen.can.gt.randprune.0.115.trees
2017-06-19 22:39:58: 212 valid trees found in file: ../gene_trees/randprune/xen.can.gt.randprune.0.115.trees
2017-06-19 22:39:58: Start of calculation...please wait...
2017-06-19 22:39:58: 0.00% completed...
2017-06-19 22:40:00: 5.19% completed...
2017-06-19 22:40:01: 10.38% completed...
2017-06-19 22:40:01: 15.57% completed...
2017-06-19 22:40:02: 20.75% completed...
2017-06-19 22:40:02: 25.94% completed...
2017-06-19 22:40:02: 31.13% completed...
2017-06-19 22:40:03: 36.32% completed...
2017-06-19 22:40:03: 41.51% completed...
2017-06-19 22:40:03: 46.70% completed...
2017-06-19 22:40:03: 51.89% completed...
2017-06-19 22:40:04: 57.08% completed...
2017-06-19 22:40:04: 62.26% completed...
2017-06-19 22:40:04: 67.45% completed...
2017-06-19 22:40:05: 72.64% completed...
2017-06-19 22:40:05: 77.83% completed...
2017-06-19 22:40:05: 83.02% completed...
2017-06-19 22:40:05: 88.21% completed...
2017-06-19 22:40:05: 93.40% completed...
2017-06-19 22:40:06: 98.58% completed...
2017-06-19 22:40:06: 100.00% completed.
2017-06-19 22:40:06: End of calculation.
2017-06-19 22:40:06: Total calculation time: 7165 ms.
done
computing RF ...
done
All done!
