pruning ...
done
computing MS ...
TreeCmp version 1.0-b291

Active options:
Type of the analysis:  one-to-all comparison mode (-r)
Metrics:
  1. MatchingSplit (ms)
Input file: ../gene_trees/randprune/xen.can.gt.randprune.0.085.trees
Output file: ../results/xen.can.randprune.0.085.MS.dat
Additional options:
P - Prune compared trees if needed (trees can have different leaf sets).
-----
2017-06-19 22:39:33: Start of scanning input file: ../gene_trees/randprune/xen.can.gt.randprune.0.085.trees
2017-06-19 22:39:37: End of scanning input file: ../gene_trees/randprune/xen.can.gt.randprune.0.085.trees
2017-06-19 22:39:37: 212 valid trees found in file: ../gene_trees/randprune/xen.can.gt.randprune.0.085.trees
2017-06-19 22:39:37: Start of calculation...please wait...
2017-06-19 22:39:37: 0.00% completed...
2017-06-19 22:39:38: 5.19% completed...
2017-06-19 22:39:39: 10.38% completed...
2017-06-19 22:39:39: 15.57% completed...
2017-06-19 22:39:40: 20.75% completed...
2017-06-19 22:39:41: 25.94% completed...
2017-06-19 22:39:41: 31.13% completed...
2017-06-19 22:39:41: 36.32% completed...
2017-06-19 22:39:42: 41.51% completed...
2017-06-19 22:39:42: 46.70% completed...
2017-06-19 22:39:42: 51.89% completed...
2017-06-19 22:39:42: 57.08% completed...
2017-06-19 22:39:43: 62.26% completed...
2017-06-19 22:39:43: 67.45% completed...
2017-06-19 22:39:43: 72.64% completed...
2017-06-19 22:39:43: 77.83% completed...
2017-06-19 22:39:44: 83.02% completed...
2017-06-19 22:39:44: 88.21% completed...
2017-06-19 22:39:44: 93.40% completed...
2017-06-19 22:39:44: 98.58% completed...
2017-06-19 22:39:44: 100.00% completed.
2017-06-19 22:39:44: End of calculation.
2017-06-19 22:39:44: Total calculation time: 7733 ms.
done
computing RF ...
done
All done!
