pruning ...
done
computing MS ...
TreeCmp version 1.0-b291

Active options:
Type of the analysis:  one-to-all comparison mode (-r)
Metrics:
  1. MatchingSplit (ms)
Input file: ../gene_trees/randprune/xen.rs.gt.randprune.0.085.trees
Output file: ../results/xen.rs.randprune.0.085.MS.dat
Additional options:
P - Prune compared trees if needed (trees can have different leaf sets).
-----
2017-06-19 23:28:27: Start of scanning input file: ../gene_trees/randprune/xen.rs.gt.randprune.0.085.trees
2017-06-19 23:28:28: End of scanning input file: ../gene_trees/randprune/xen.rs.gt.randprune.0.085.trees
2017-06-19 23:28:28: 393 valid trees found in file: ../gene_trees/randprune/xen.rs.gt.randprune.0.085.trees
2017-06-19 23:28:28: Start of calculation...please wait...
2017-06-19 23:28:28: 0.00% completed...
2017-06-19 23:28:29: 5.09% completed...
2017-06-19 23:28:29: 10.18% completed...
2017-06-19 23:28:29: 15.27% completed...
2017-06-19 23:28:29: 20.36% completed...
2017-06-19 23:28:29: 25.45% completed...
2017-06-19 23:28:30: 30.53% completed...
2017-06-19 23:28:30: 35.62% completed...
2017-06-19 23:28:30: 40.71% completed...
2017-06-19 23:28:30: 45.80% completed...
2017-06-19 23:28:30: 50.89% completed...
2017-06-19 23:28:30: 55.98% completed...
2017-06-19 23:28:30: 61.07% completed...
2017-06-19 23:28:30: 66.16% completed...
2017-06-19 23:28:30: 71.25% completed...
2017-06-19 23:28:31: 76.34% completed...
2017-06-19 23:28:31: 81.42% completed...
2017-06-19 23:28:31: 86.51% completed...
2017-06-19 23:28:31: 91.60% completed...
2017-06-19 23:28:31: 96.69% completed...
2017-06-19 23:28:31: 100.00% completed.
2017-06-19 23:28:31: End of calculation.
2017-06-19 23:28:31: Total calculation time: 2777 ms.
done
computing RF ...
done
All done!
