pruning ...
done
computing MS ...
TreeCmp version 1.0-b291

Active options:
Type of the analysis:  one-to-all comparison mode (-r)
Metrics:
  1. MatchingSplit (ms)
Input file: ../gene_trees/randprune/xen.rs.gt.randprune.0.100.trees
Output file: ../results/xen.rs.randprune.0.100.MS.dat
Additional options:
P - Prune compared trees if needed (trees can have different leaf sets).
-----
2017-06-19 23:28:37: Start of scanning input file: ../gene_trees/randprune/xen.rs.gt.randprune.0.100.trees
2017-06-19 23:28:38: End of scanning input file: ../gene_trees/randprune/xen.rs.gt.randprune.0.100.trees
2017-06-19 23:28:38: 393 valid trees found in file: ../gene_trees/randprune/xen.rs.gt.randprune.0.100.trees
2017-06-19 23:28:38: Start of calculation...please wait...
2017-06-19 23:28:38: 0.00% completed...
2017-06-19 23:28:39: 5.09% completed...
2017-06-19 23:28:39: 10.18% completed...
2017-06-19 23:28:39: 15.27% completed...
2017-06-19 23:28:39: 20.36% completed...
2017-06-19 23:28:39: 25.45% completed...
2017-06-19 23:28:39: 30.53% completed...
2017-06-19 23:28:40: 35.62% completed...
2017-06-19 23:28:40: 40.71% completed...
2017-06-19 23:28:40: 45.80% completed...
2017-06-19 23:28:40: 50.89% completed...
2017-06-19 23:28:40: 55.98% completed...
2017-06-19 23:28:40: 61.07% completed...
2017-06-19 23:28:40: 66.16% completed...
2017-06-19 23:28:40: 71.25% completed...
2017-06-19 23:28:40: 76.34% completed...
2017-06-19 23:28:40: 81.42% completed...
2017-06-19 23:28:40: 86.51% completed...
2017-06-19 23:28:40: 91.60% completed...
2017-06-19 23:28:40: 96.69% completed...
2017-06-19 23:28:40: 100.00% completed.
2017-06-19 23:28:40: End of calculation.
2017-06-19 23:28:40: Total calculation time: 2217 ms.
done
computing RF ...
(standard_in) 2: syntax error
done
All done!
