pruning ...
done
computing MS ...
TreeCmp version 1.0-b291

Active options:
Type of the analysis:  one-to-all comparison mode (-r)
Metrics:
  1. MatchingSplit (ms)
Input file: ../gene_trees/randprune/xen.rs.gt.randprune.0.055.trees
Output file: ../results/xen.rs.randprune.0.055.MS.dat
Additional options:
P - Prune compared trees if needed (trees can have different leaf sets).
-----
2017-06-19 23:28:06: Start of scanning input file: ../gene_trees/randprune/xen.rs.gt.randprune.0.055.trees
2017-06-19 23:28:07: End of scanning input file: ../gene_trees/randprune/xen.rs.gt.randprune.0.055.trees
2017-06-19 23:28:07: 393 valid trees found in file: ../gene_trees/randprune/xen.rs.gt.randprune.0.055.trees
2017-06-19 23:28:07: Start of calculation...please wait...
2017-06-19 23:28:07: 0.00% completed...
2017-06-19 23:28:08: 5.09% completed...
2017-06-19 23:28:08: 10.18% completed...
2017-06-19 23:28:08: 15.27% completed...
2017-06-19 23:28:08: 20.36% completed...
2017-06-19 23:28:08: 25.45% completed...
2017-06-19 23:28:09: 30.53% completed...
2017-06-19 23:28:09: 35.62% completed...
2017-06-19 23:28:09: 40.71% completed...
2017-06-19 23:28:09: 45.80% completed...
2017-06-19 23:28:09: 50.89% completed...
2017-06-19 23:28:09: 55.98% completed...
2017-06-19 23:28:09: 61.07% completed...
2017-06-19 23:28:10: 66.16% completed...
2017-06-19 23:28:10: 71.25% completed...
2017-06-19 23:28:10: 76.34% completed...
2017-06-19 23:28:10: 81.42% completed...
2017-06-19 23:28:10: 86.51% completed...
2017-06-19 23:28:10: 91.60% completed...
2017-06-19 23:28:10: 96.69% completed...
2017-06-19 23:28:10: 100.00% completed.
2017-06-19 23:28:10: End of calculation.
2017-06-19 23:28:10: Total calculation time: 2842 ms.
done
computing RF ...
done
All done!
