pruning
compute MS
TreeCmp version 1.0-b291

Active options:
Type of the analysis:  one-to-all comparison mode (-r)
Metrics:
  1. MatchingSplit (ms)
Input file: ../gene_trees/rooted_pruning/xen.can.gt.trees.3.80.trees
Output file: ../results/xen.can.trees.3.80.MS.dat
Additional options:
P - Prune compared trees if needed (trees can have different leaf sets).
-----
2017-06-20 10:04:28: Start of scanning input file: ../gene_trees/rooted_pruning/xen.can.gt.trees.3.80.trees
2017-06-20 10:04:30: End of scanning input file: ../gene_trees/rooted_pruning/xen.can.gt.trees.3.80.trees
2017-06-20 10:04:30: 212 valid trees found in file: ../gene_trees/rooted_pruning/xen.can.gt.trees.3.80.trees
2017-06-20 10:04:30: Start of calculation...please wait...
2017-06-20 10:04:30: 0.00% completed...
2017-06-20 10:04:31: 5.19% completed...
2017-06-20 10:04:31: 10.38% completed...
2017-06-20 10:04:32: 15.57% completed...
2017-06-20 10:04:32: 20.75% completed...
2017-06-20 10:04:32: 25.94% completed...
2017-06-20 10:04:32: 31.13% completed...
2017-06-20 10:04:32: 36.32% completed...
2017-06-20 10:04:33: 41.51% completed...
2017-06-20 10:04:33: 46.70% completed...
2017-06-20 10:04:33: 51.89% completed...
2017-06-20 10:04:33: 57.08% completed...
2017-06-20 10:04:33: 62.26% completed...
2017-06-20 10:04:34: 67.45% completed...
2017-06-20 10:04:34: 72.64% completed...
2017-06-20 10:04:34: 77.83% completed...
2017-06-20 10:04:34: 83.02% completed...
2017-06-20 10:04:34: 88.21% completed...
2017-06-20 10:04:34: 93.40% completed...
2017-06-20 10:04:34: 98.58% completed...
2017-06-20 10:04:34: 100.00% completed.
2017-06-20 10:04:34: End of calculation.
2017-06-20 10:04:34: Total calculation time: 4557 ms.
compute RF
