pruning ...
done
computing MS ...
TreeCmp version 1.0-b291

Active options:
Type of the analysis:  one-to-all comparison mode (-r)
Metrics:
  1. MatchingSplit (ms)
Input file: ../gene_trees/randprune/xen.can.gt.randprune.0.010.trees
Output file: ../results/xen.can.randprune.0.010.MS.dat
Additional options:
P - Prune compared trees if needed (trees can have different leaf sets).
-----
2017-06-19 22:37:58: Start of scanning input file: ../gene_trees/randprune/xen.can.gt.randprune.0.010.trees
2017-06-19 22:38:00: End of scanning input file: ../gene_trees/randprune/xen.can.gt.randprune.0.010.trees
2017-06-19 22:38:00: 212 valid trees found in file: ../gene_trees/randprune/xen.can.gt.randprune.0.010.trees
2017-06-19 22:38:00: Start of calculation...please wait...
2017-06-19 22:38:00: 0.00% completed...
2017-06-19 22:38:01: 5.19% completed...
2017-06-19 22:38:02: 10.38% completed...
2017-06-19 22:38:02: 15.57% completed...
2017-06-19 22:38:02: 20.75% completed...
2017-06-19 22:38:03: 25.94% completed...
2017-06-19 22:38:03: 31.13% completed...
2017-06-19 22:38:03: 36.32% completed...
2017-06-19 22:38:04: 41.51% completed...
2017-06-19 22:38:04: 46.70% completed...
2017-06-19 22:38:04: 51.89% completed...
2017-06-19 22:38:04: 57.08% completed...
2017-06-19 22:38:04: 62.26% completed...
2017-06-19 22:38:05: 67.45% completed...
2017-06-19 22:38:05: 72.64% completed...
2017-06-19 22:38:05: 77.83% completed...
2017-06-19 22:38:05: 83.02% completed...
2017-06-19 22:38:05: 88.21% completed...
2017-06-19 22:38:05: 93.40% completed...
2017-06-19 22:38:05: 98.58% completed...
2017-06-19 22:38:05: 100.00% completed.
2017-06-19 22:38:05: End of calculation.
2017-06-19 22:38:05: Total calculation time: 5538 ms.
done
computing RF ...
done
All done!
