pruning
compute MS
TreeCmp version 1.0-b291

Active options:
Type of the analysis:  one-to-all comparison mode (-r)
Metrics:
  1. MatchingSplit (ms)
Input file: ../gene_trees/rooted_pruning/xen.can.gt.trees.2.84.trees
Output file: ../results/xen.can.trees.2.84.MS.dat
Additional options:
P - Prune compared trees if needed (trees can have different leaf sets).
-----
2017-06-20 10:04:25: Start of scanning input file: ../gene_trees/rooted_pruning/xen.can.gt.trees.2.84.trees
2017-06-20 10:04:26: End of scanning input file: ../gene_trees/rooted_pruning/xen.can.gt.trees.2.84.trees
2017-06-20 10:04:26: 212 valid trees found in file: ../gene_trees/rooted_pruning/xen.can.gt.trees.2.84.trees
2017-06-20 10:04:26: Start of calculation...please wait...
2017-06-20 10:04:26: 0.00% completed...
2017-06-20 10:04:26: 5.19% completed...
2017-06-20 10:04:27: 10.38% completed...
2017-06-20 10:04:27: 15.57% completed...
2017-06-20 10:04:27: 20.75% completed...
2017-06-20 10:04:27: 25.94% completed...
2017-06-20 10:04:28: 31.13% completed...
2017-06-20 10:04:28: 36.32% completed...
2017-06-20 10:04:28: 41.51% completed...
2017-06-20 10:04:28: 46.70% completed...
2017-06-20 10:04:29: 51.89% completed...
2017-06-20 10:04:29: 57.08% completed...
2017-06-20 10:04:29: 62.26% completed...
2017-06-20 10:04:29: 67.45% completed...
2017-06-20 10:04:29: 72.64% completed...
2017-06-20 10:04:29: 77.83% completed...
2017-06-20 10:04:29: 83.02% completed...
2017-06-20 10:04:29: 88.21% completed...
2017-06-20 10:04:30: 93.40% completed...
2017-06-20 10:04:30: 98.58% completed...
2017-06-20 10:04:30: 100.00% completed.
2017-06-20 10:04:30: End of calculation.
2017-06-20 10:04:30: Total calculation time: 3893 ms.
compute RF
