TreeCmp version 1.0-b291

Active options:
Type of the analysis:  one-to-all comparison mode (-r)
Metrics:
  1. MatchingSplit (ms)
Input file: ../gene_trees/rogueNarok/xen.rs.RnR.0.trees
Output file: ../results/xen.rs.RnR.0.MS.dat
Additional options:
P - Prune compared trees if needed (trees can have different leaf sets).
-----
2017-06-20 09:34:06: Start of scanning input file: ../gene_trees/rogueNarok/xen.rs.RnR.0.trees
2017-06-20 09:34:07: End of scanning input file: ../gene_trees/rogueNarok/xen.rs.RnR.0.trees
2017-06-20 09:34:07: 393 valid trees found in file: ../gene_trees/rogueNarok/xen.rs.RnR.0.trees
2017-06-20 09:34:07: Start of calculation...please wait...
2017-06-20 09:34:07: 0.00% completed...
2017-06-20 09:34:07: 5.09% completed...
2017-06-20 09:34:07: 10.18% completed...
2017-06-20 09:34:07: 15.27% completed...
2017-06-20 09:34:08: 20.36% completed...
2017-06-20 09:34:08: 25.45% completed...
2017-06-20 09:34:08: 30.53% completed...
2017-06-20 09:34:08: 35.62% completed...
2017-06-20 09:34:08: 40.71% completed...
2017-06-20 09:34:08: 45.80% completed...
2017-06-20 09:34:08: 50.89% completed...
2017-06-20 09:34:09: 55.98% completed...
2017-06-20 09:34:09: 61.07% completed...
2017-06-20 09:34:09: 66.16% completed...
2017-06-20 09:34:09: 71.25% completed...
2017-06-20 09:34:09: 76.34% completed...
2017-06-20 09:34:09: 81.42% completed...
2017-06-20 09:34:09: 86.51% completed...
2017-06-20 09:34:09: 91.60% completed...
2017-06-20 09:34:09: 96.69% completed...
2017-06-20 09:34:09: 100.00% completed.
2017-06-20 09:34:09: End of calculation.
2017-06-20 09:34:09: Total calculation time: 2329 ms.
