pruning
compute MS
TreeCmp version 1.0-b291

Active options:
Type of the analysis:  one-to-all comparison mode (-r)
Metrics:
  1. MatchingSplit (ms)
Input file: ../gene_trees/rooted_pruning/xen.rs.gt.trees.3.32.trees
Output file: ../results/xen.rs.trees.3.32.MS.dat
Additional options:
P - Prune compared trees if needed (trees can have different leaf sets).
-----
2017-06-19 23:35:02: Start of scanning input file: ../gene_trees/rooted_pruning/xen.rs.gt.trees.3.32.trees
2017-06-19 23:35:02: End of scanning input file: ../gene_trees/rooted_pruning/xen.rs.gt.trees.3.32.trees
2017-06-19 23:35:02: 393 valid trees found in file: ../gene_trees/rooted_pruning/xen.rs.gt.trees.3.32.trees
2017-06-19 23:35:02: Start of calculation...please wait...
2017-06-19 23:35:02: 0.00% completed...
2017-06-19 23:35:03: 5.09% completed...
2017-06-19 23:35:03: 10.18% completed...
2017-06-19 23:35:03: 15.27% completed...
2017-06-19 23:35:03: 20.36% completed...
2017-06-19 23:35:03: 25.45% completed...
2017-06-19 23:35:03: 30.53% completed...
2017-06-19 23:35:03: 35.62% completed...
2017-06-19 23:35:03: 40.71% completed...
2017-06-19 23:35:03: 45.80% completed...
2017-06-19 23:35:03: 50.89% completed...
2017-06-19 23:35:04: 55.98% completed...
2017-06-19 23:35:04: 61.07% completed...
2017-06-19 23:35:04: 66.16% completed...
2017-06-19 23:35:04: 71.25% completed...
2017-06-19 23:35:04: 76.34% completed...
2017-06-19 23:35:04: 81.42% completed...
2017-06-19 23:35:04: 86.51% completed...
2017-06-19 23:35:04: 91.60% completed...
2017-06-19 23:35:04: 96.69% completed...
2017-06-19 23:35:04: 100.00% completed.
2017-06-19 23:35:04: End of calculation.
2017-06-19 23:35:04: Total calculation time: 1681 ms.
compute RF
