pruning ...
done
computing MS ...
TreeCmp version 1.0-b291

Active options:
Type of the analysis:  one-to-all comparison mode (-r)
Metrics:
  1. MatchingSplit (ms)
Input file: ../gene_trees/randprune/xen.can.gt.randprune.0.110.trees
Output file: ../results/xen.can.randprune.0.110.MS.dat
Additional options:
P - Prune compared trees if needed (trees can have different leaf sets).
-----
2017-06-19 22:39:49: Start of scanning input file: ../gene_trees/randprune/xen.can.gt.randprune.0.110.trees
2017-06-19 22:39:53: End of scanning input file: ../gene_trees/randprune/xen.can.gt.randprune.0.110.trees
2017-06-19 22:39:53: 212 valid trees found in file: ../gene_trees/randprune/xen.can.gt.randprune.0.110.trees
2017-06-19 22:39:53: Start of calculation...please wait...
2017-06-19 22:39:53: 0.00% completed...
2017-06-19 22:39:55: 5.19% completed...
2017-06-19 22:39:55: 10.38% completed...
2017-06-19 22:39:56: 15.57% completed...
2017-06-19 22:39:56: 20.75% completed...
2017-06-19 22:39:56: 25.94% completed...
2017-06-19 22:39:56: 31.13% completed...
2017-06-19 22:39:57: 36.32% completed...
2017-06-19 22:39:57: 41.51% completed...
2017-06-19 22:39:57: 46.70% completed...
2017-06-19 22:39:57: 51.89% completed...
2017-06-19 22:39:58: 57.08% completed...
2017-06-19 22:39:58: 62.26% completed...
2017-06-19 22:39:58: 67.45% completed...
2017-06-19 22:39:58: 72.64% completed...
2017-06-19 22:39:59: 77.83% completed...
2017-06-19 22:39:59: 83.02% completed...
2017-06-19 22:39:59: 88.21% completed...
2017-06-19 22:39:59: 93.40% completed...
2017-06-19 22:40:00: 98.58% completed...
2017-06-19 22:40:00: 100.00% completed.
2017-06-19 22:40:00: End of calculation.
2017-06-19 22:40:00: Total calculation time: 6728 ms.
done
computing RF ...
done
All done!
