pruning
compute MS
TreeCmp version 1.0-b291

Active options:
Type of the analysis:  one-to-all comparison mode (-r)
Metrics:
  1. MatchingSplit (ms)
Input file: ../gene_trees/rooted_pruning/xen.rs.gt.trees.3.38.trees
Output file: ../results/xen.rs.trees.3.38.MS.dat
Additional options:
P - Prune compared trees if needed (trees can have different leaf sets).
-----
2017-06-19 23:34:53: Start of scanning input file: ../gene_trees/rooted_pruning/xen.rs.gt.trees.3.38.trees
2017-06-19 23:34:54: End of scanning input file: ../gene_trees/rooted_pruning/xen.rs.gt.trees.3.38.trees
2017-06-19 23:34:54: 393 valid trees found in file: ../gene_trees/rooted_pruning/xen.rs.gt.trees.3.38.trees
2017-06-19 23:34:54: Start of calculation...please wait...
2017-06-19 23:34:54: 0.00% completed...
2017-06-19 23:34:54: 5.09% completed...
2017-06-19 23:34:54: 10.18% completed...
2017-06-19 23:34:55: 15.27% completed...
2017-06-19 23:34:55: 20.36% completed...
2017-06-19 23:34:55: 25.45% completed...
2017-06-19 23:34:55: 30.53% completed...
2017-06-19 23:34:55: 35.62% completed...
2017-06-19 23:34:55: 40.71% completed...
2017-06-19 23:34:56: 45.80% completed...
2017-06-19 23:34:56: 50.89% completed...
2017-06-19 23:34:56: 55.98% completed...
2017-06-19 23:34:56: 61.07% completed...
2017-06-19 23:34:56: 66.16% completed...
2017-06-19 23:34:56: 71.25% completed...
2017-06-19 23:34:57: 76.34% completed...
2017-06-19 23:34:57: 81.42% completed...
2017-06-19 23:34:57: 86.51% completed...
2017-06-19 23:34:57: 91.60% completed...
2017-06-19 23:34:57: 96.69% completed...
2017-06-19 23:34:57: 100.00% completed.
2017-06-19 23:34:57: End of calculation.
2017-06-19 23:34:57: Total calculation time: 3601 ms.
compute RF
