pruning ...
done
computing MS ...
TreeCmp version 1.0-b291

Active options:
Type of the analysis:  one-to-all comparison mode (-r)
Metrics:
  1. MatchingSplit (ms)
Input file: ../gene_trees/randprune/xen.rs.gt.randprune.0.080.trees
Output file: ../results/xen.rs.randprune.0.080.MS.dat
Additional options:
P - Prune compared trees if needed (trees can have different leaf sets).
-----
2017-06-19 23:28:24: Start of scanning input file: ../gene_trees/randprune/xen.rs.gt.randprune.0.080.trees
2017-06-19 23:28:26: End of scanning input file: ../gene_trees/randprune/xen.rs.gt.randprune.0.080.trees
2017-06-19 23:28:26: 393 valid trees found in file: ../gene_trees/randprune/xen.rs.gt.randprune.0.080.trees
2017-06-19 23:28:26: Start of calculation...please wait...
2017-06-19 23:28:26: 0.00% completed...
2017-06-19 23:28:26: 5.09% completed...
2017-06-19 23:28:26: 10.18% completed...
2017-06-19 23:28:26: 15.27% completed...
2017-06-19 23:28:27: 20.36% completed...
2017-06-19 23:28:27: 25.45% completed...
2017-06-19 23:28:27: 30.53% completed...
2017-06-19 23:28:27: 35.62% completed...
2017-06-19 23:28:27: 40.71% completed...
2017-06-19 23:28:27: 45.80% completed...
2017-06-19 23:28:27: 50.89% completed...
2017-06-19 23:28:28: 55.98% completed...
2017-06-19 23:28:28: 61.07% completed...
2017-06-19 23:28:28: 66.16% completed...
2017-06-19 23:28:28: 71.25% completed...
2017-06-19 23:28:28: 76.34% completed...
2017-06-19 23:28:28: 81.42% completed...
2017-06-19 23:28:28: 86.51% completed...
2017-06-19 23:28:28: 91.60% completed...
2017-06-19 23:28:28: 96.69% completed...
2017-06-19 23:28:28: 100.00% completed.
2017-06-19 23:28:28: End of calculation.
2017-06-19 23:28:28: Total calculation time: 2869 ms.
done
computing RF ...
done
All done!
