pruning
compute MS
TreeCmp version 1.0-b291

Active options:
Type of the analysis:  one-to-all comparison mode (-r)
Metrics:
  1. MatchingSplit (ms)
Input file: ../gene_trees/rooted_pruning/xen.rs.gt.trees.2.12.trees
Output file: ../results/xen.rs.trees.2.12.MS.dat
Additional options:
P - Prune compared trees if needed (trees can have different leaf sets).
-----
2017-06-19 23:34:56: Start of scanning input file: ../gene_trees/rooted_pruning/xen.rs.gt.trees.2.12.trees
2017-06-19 23:34:57: End of scanning input file: ../gene_trees/rooted_pruning/xen.rs.gt.trees.2.12.trees
2017-06-19 23:34:57: 393 valid trees found in file: ../gene_trees/rooted_pruning/xen.rs.gt.trees.2.12.trees
2017-06-19 23:34:57: Start of calculation...please wait...
2017-06-19 23:34:57: 0.00% completed...
2017-06-19 23:34:58: 5.09% completed...
2017-06-19 23:34:58: 10.18% completed...
2017-06-19 23:34:58: 15.27% completed...
2017-06-19 23:34:58: 20.36% completed...
2017-06-19 23:34:58: 25.45% completed...
2017-06-19 23:34:59: 30.53% completed...
2017-06-19 23:34:59: 35.62% completed...
2017-06-19 23:34:59: 40.71% completed...
2017-06-19 23:34:59: 45.80% completed...
2017-06-19 23:34:59: 50.89% completed...
2017-06-19 23:34:59: 55.98% completed...
2017-06-19 23:34:59: 61.07% completed...
2017-06-19 23:35:00: 66.16% completed...
2017-06-19 23:35:00: 71.25% completed...
2017-06-19 23:35:00: 76.34% completed...
2017-06-19 23:35:00: 81.42% completed...
2017-06-19 23:35:00: 86.51% completed...
2017-06-19 23:35:00: 91.60% completed...
2017-06-19 23:35:00: 96.69% completed...
2017-06-19 23:35:00: 100.00% completed.
2017-06-19 23:35:00: End of calculation.
2017-06-19 23:35:00: Total calculation time: 3056 ms.
compute RF
