pruning
compute MS
TreeCmp version 1.0-b291

Active options:
Type of the analysis:  one-to-all comparison mode (-r)
Metrics:
  1. MatchingSplit (ms)
Input file: ../gene_trees/rooted_pruning/xen.rs.gt.trees.2.78.trees
Output file: ../results/xen.rs.trees.2.78.MS.dat
Additional options:
P - Prune compared trees if needed (trees can have different leaf sets).
-----
2017-06-19 23:34:51: Start of scanning input file: ../gene_trees/rooted_pruning/xen.rs.gt.trees.2.78.trees
2017-06-19 23:34:52: End of scanning input file: ../gene_trees/rooted_pruning/xen.rs.gt.trees.2.78.trees
2017-06-19 23:34:52: 393 valid trees found in file: ../gene_trees/rooted_pruning/xen.rs.gt.trees.2.78.trees
2017-06-19 23:34:52: Start of calculation...please wait...
2017-06-19 23:34:52: 0.00% completed...
2017-06-19 23:34:53: 5.09% completed...
2017-06-19 23:34:53: 10.18% completed...
2017-06-19 23:34:53: 15.27% completed...
2017-06-19 23:34:53: 20.36% completed...
2017-06-19 23:34:53: 25.45% completed...
2017-06-19 23:34:53: 30.53% completed...
2017-06-19 23:34:53: 35.62% completed...
2017-06-19 23:34:54: 40.71% completed...
2017-06-19 23:34:54: 45.80% completed...
2017-06-19 23:34:54: 50.89% completed...
2017-06-19 23:34:54: 55.98% completed...
2017-06-19 23:34:54: 61.07% completed...
2017-06-19 23:34:54: 66.16% completed...
2017-06-19 23:34:54: 71.25% completed...
2017-06-19 23:34:54: 76.34% completed...
2017-06-19 23:34:54: 81.42% completed...
2017-06-19 23:34:54: 86.51% completed...
2017-06-19 23:34:54: 91.60% completed...
2017-06-19 23:34:55: 96.69% completed...
2017-06-19 23:34:55: 100.00% completed.
2017-06-19 23:34:55: End of calculation.
2017-06-19 23:34:55: Total calculation time: 2544 ms.
compute RF
