pruning ...
done
computing MS ...
TreeCmp version 1.0-b291

Active options:
Type of the analysis:  one-to-all comparison mode (-r)
Metrics:
  1. MatchingSplit (ms)
Input file: ../gene_trees/randprune/xen.can.gt.randprune.0.005.trees
Output file: ../results/xen.can.randprune.0.005.MS.dat
Additional options:
P - Prune compared trees if needed (trees can have different leaf sets).
-----
2017-06-19 22:37:49: Start of scanning input file: ../gene_trees/randprune/xen.can.gt.randprune.0.005.trees
2017-06-19 22:37:51: End of scanning input file: ../gene_trees/randprune/xen.can.gt.randprune.0.005.trees
2017-06-19 22:37:51: 212 valid trees found in file: ../gene_trees/randprune/xen.can.gt.randprune.0.005.trees
2017-06-19 22:37:51: Start of calculation...please wait...
2017-06-19 22:37:51: 0.00% completed...
2017-06-19 22:37:52: 5.19% completed...
2017-06-19 22:37:53: 10.38% completed...
2017-06-19 22:37:53: 15.57% completed...
2017-06-19 22:37:54: 20.75% completed...
2017-06-19 22:37:54: 25.94% completed...
2017-06-19 22:37:54: 31.13% completed...
2017-06-19 22:37:54: 36.32% completed...
2017-06-19 22:37:55: 41.51% completed...
2017-06-19 22:37:55: 46.70% completed...
2017-06-19 22:37:55: 51.89% completed...
2017-06-19 22:37:55: 57.08% completed...
2017-06-19 22:37:55: 62.26% completed...
2017-06-19 22:37:55: 67.45% completed...
2017-06-19 22:37:55: 72.64% completed...
2017-06-19 22:37:56: 77.83% completed...
2017-06-19 22:37:56: 83.02% completed...
2017-06-19 22:37:56: 88.21% completed...
2017-06-19 22:37:56: 93.40% completed...
2017-06-19 22:37:56: 98.58% completed...
2017-06-19 22:37:56: 100.00% completed.
2017-06-19 22:37:56: End of calculation.
2017-06-19 22:37:56: Total calculation time: 5122 ms.
done
computing RF ...
done
All done!
