pruning
compute MS
TreeCmp version 1.0-b291

Active options:
Type of the analysis:  one-to-all comparison mode (-r)
Metrics:
  1. MatchingSplit (ms)
Input file: ../gene_trees/rooted_pruning/xen.rs.gt.trees.3.44.trees
Output file: ../results/xen.rs.trees.3.44.MS.dat
Additional options:
P - Prune compared trees if needed (trees can have different leaf sets).
-----
2017-06-19 23:34:57: Start of scanning input file: ../gene_trees/rooted_pruning/xen.rs.gt.trees.3.44.trees
2017-06-19 23:34:58: End of scanning input file: ../gene_trees/rooted_pruning/xen.rs.gt.trees.3.44.trees
2017-06-19 23:34:58: 393 valid trees found in file: ../gene_trees/rooted_pruning/xen.rs.gt.trees.3.44.trees
2017-06-19 23:34:58: Start of calculation...please wait...
2017-06-19 23:34:58: 0.00% completed...
2017-06-19 23:34:59: 5.09% completed...
2017-06-19 23:34:59: 10.18% completed...
2017-06-19 23:34:59: 15.27% completed...
2017-06-19 23:34:59: 20.36% completed...
2017-06-19 23:35:00: 25.45% completed...
2017-06-19 23:35:00: 30.53% completed...
2017-06-19 23:35:00: 35.62% completed...
2017-06-19 23:35:00: 40.71% completed...
2017-06-19 23:35:00: 45.80% completed...
2017-06-19 23:35:00: 50.89% completed...
2017-06-19 23:35:00: 55.98% completed...
2017-06-19 23:35:01: 61.07% completed...
2017-06-19 23:35:01: 66.16% completed...
2017-06-19 23:35:01: 71.25% completed...
2017-06-19 23:35:01: 76.34% completed...
2017-06-19 23:35:01: 81.42% completed...
2017-06-19 23:35:01: 86.51% completed...
2017-06-19 23:35:01: 91.60% completed...
2017-06-19 23:35:01: 96.69% completed...
2017-06-19 23:35:01: 100.00% completed.
2017-06-19 23:35:01: End of calculation.
2017-06-19 23:35:01: Total calculation time: 2831 ms.
compute RF
