pruning ...
done
computing MS ...
TreeCmp version 1.0-b291

Active options:
Type of the analysis:  one-to-all comparison mode (-r)
Metrics:
  1. MatchingSplit (ms)
Input file: ../gene_trees/randprune/xen.rs.gt.randprune.0.095.trees
Output file: ../results/xen.rs.randprune.0.095.MS.dat
Additional options:
P - Prune compared trees if needed (trees can have different leaf sets).
-----
2017-06-19 23:28:34: Start of scanning input file: ../gene_trees/randprune/xen.rs.gt.randprune.0.095.trees
2017-06-19 23:28:36: End of scanning input file: ../gene_trees/randprune/xen.rs.gt.randprune.0.095.trees
2017-06-19 23:28:36: 393 valid trees found in file: ../gene_trees/randprune/xen.rs.gt.randprune.0.095.trees
2017-06-19 23:28:36: Start of calculation...please wait...
2017-06-19 23:28:36: 0.00% completed...
2017-06-19 23:28:36: 5.09% completed...
2017-06-19 23:28:36: 10.18% completed...
2017-06-19 23:28:37: 15.27% completed...
2017-06-19 23:28:37: 20.36% completed...
2017-06-19 23:28:37: 25.45% completed...
2017-06-19 23:28:37: 30.53% completed...
2017-06-19 23:28:37: 35.62% completed...
2017-06-19 23:28:37: 40.71% completed...
2017-06-19 23:28:37: 45.80% completed...
2017-06-19 23:28:37: 50.89% completed...
2017-06-19 23:28:38: 55.98% completed...
2017-06-19 23:28:38: 61.07% completed...
2017-06-19 23:28:38: 66.16% completed...
2017-06-19 23:28:38: 71.25% completed...
2017-06-19 23:28:38: 76.34% completed...
2017-06-19 23:28:38: 81.42% completed...
2017-06-19 23:28:38: 86.51% completed...
2017-06-19 23:28:38: 91.60% completed...
2017-06-19 23:28:38: 96.69% completed...
2017-06-19 23:28:38: 100.00% completed.
2017-06-19 23:28:38: End of calculation.
2017-06-19 23:28:38: Total calculation time: 2333 ms.
done
computing RF ...
done
All done!
