pruning ...
done
computing MS ...
TreeCmp version 1.0-b291

Active options:
Type of the analysis:  one-to-all comparison mode (-r)
Metrics:
  1. MatchingSplit (ms)
Input file: ../gene_trees/randprune/xen.can.gt.randprune.0.080.trees
Output file: ../results/xen.can.randprune.0.080.MS.dat
Additional options:
P - Prune compared trees if needed (trees can have different leaf sets).
-----
2017-06-19 22:39:27: Start of scanning input file: ../gene_trees/randprune/xen.can.gt.randprune.0.080.trees
2017-06-19 22:39:30: End of scanning input file: ../gene_trees/randprune/xen.can.gt.randprune.0.080.trees
2017-06-19 22:39:30: 212 valid trees found in file: ../gene_trees/randprune/xen.can.gt.randprune.0.080.trees
2017-06-19 22:39:30: Start of calculation...please wait...
2017-06-19 22:39:30: 0.00% completed...
2017-06-19 22:39:32: 5.19% completed...
2017-06-19 22:39:32: 10.38% completed...
2017-06-19 22:39:33: 15.57% completed...
2017-06-19 22:39:33: 20.75% completed...
2017-06-19 22:39:34: 25.94% completed...
2017-06-19 22:39:34: 31.13% completed...
2017-06-19 22:39:34: 36.32% completed...
2017-06-19 22:39:35: 41.51% completed...
2017-06-19 22:39:35: 46.70% completed...
2017-06-19 22:39:35: 51.89% completed...
2017-06-19 22:39:35: 57.08% completed...
2017-06-19 22:39:36: 62.26% completed...
2017-06-19 22:39:36: 67.45% completed...
2017-06-19 22:39:36: 72.64% completed...
2017-06-19 22:39:37: 77.83% completed...
2017-06-19 22:39:37: 83.02% completed...
2017-06-19 22:39:37: 88.21% completed...
2017-06-19 22:39:37: 93.40% completed...
2017-06-19 22:39:38: 98.58% completed...
2017-06-19 22:39:38: 100.00% completed.
2017-06-19 22:39:38: End of calculation.
2017-06-19 22:39:38: Total calculation time: 7628 ms.
done
computing RF ...
done
All done!
