pruning ...
done
computing MS ...
TreeCmp version 1.0-b291

Active options:
Type of the analysis:  one-to-all comparison mode (-r)
Metrics:
  1. MatchingSplit (ms)
Input file: ../gene_trees/randprune/xen.rs.gt.randprune.0.045.trees
Output file: ../results/xen.rs.randprune.0.045.MS.dat
Additional options:
P - Prune compared trees if needed (trees can have different leaf sets).
-----
2017-06-19 23:27:58: Start of scanning input file: ../gene_trees/randprune/xen.rs.gt.randprune.0.045.trees
2017-06-19 23:27:59: End of scanning input file: ../gene_trees/randprune/xen.rs.gt.randprune.0.045.trees
2017-06-19 23:27:59: 393 valid trees found in file: ../gene_trees/randprune/xen.rs.gt.randprune.0.045.trees
2017-06-19 23:27:59: Start of calculation...please wait...
2017-06-19 23:27:59: 0.00% completed...
2017-06-19 23:27:59: 5.09% completed...
2017-06-19 23:27:59: 10.18% completed...
2017-06-19 23:28:00: 15.27% completed...
2017-06-19 23:28:00: 20.36% completed...
2017-06-19 23:28:00: 25.45% completed...
2017-06-19 23:28:00: 30.53% completed...
2017-06-19 23:28:00: 35.62% completed...
2017-06-19 23:28:00: 40.71% completed...
2017-06-19 23:28:01: 45.80% completed...
2017-06-19 23:28:01: 50.89% completed...
2017-06-19 23:28:01: 55.98% completed...
2017-06-19 23:28:01: 61.07% completed...
2017-06-19 23:28:01: 66.16% completed...
2017-06-19 23:28:01: 71.25% completed...
2017-06-19 23:28:01: 76.34% completed...
2017-06-19 23:28:01: 81.42% completed...
2017-06-19 23:28:01: 86.51% completed...
2017-06-19 23:28:02: 91.60% completed...
2017-06-19 23:28:02: 96.69% completed...
2017-06-19 23:28:02: 100.00% completed.
2017-06-19 23:28:02: End of calculation.
2017-06-19 23:28:02: Total calculation time: 3031 ms.
done
computing RF ...
done
All done!
