pruning ...
done
computing MS ...
TreeCmp version 1.0-b291

Active options:
Type of the analysis:  one-to-all comparison mode (-r)
Metrics:
  1. MatchingSplit (ms)
Input file: ../gene_trees/randprune/xen.can.gt.randprune.0.145.trees
Output file: ../results/xen.can.randprune.0.145.MS.dat
Additional options:
P - Prune compared trees if needed (trees can have different leaf sets).
-----
2017-06-19 22:40:19: Start of scanning input file: ../gene_trees/randprune/xen.can.gt.randprune.0.145.trees
2017-06-19 22:40:23: End of scanning input file: ../gene_trees/randprune/xen.can.gt.randprune.0.145.trees
2017-06-19 22:40:23: 212 valid trees found in file: ../gene_trees/randprune/xen.can.gt.randprune.0.145.trees
2017-06-19 22:40:23: Start of calculation...please wait...
2017-06-19 22:40:23: 0.00% completed...
2017-06-19 22:40:24: 5.19% completed...
2017-06-19 22:40:25: 10.38% completed...
2017-06-19 22:40:26: 15.57% completed...
2017-06-19 22:40:26: 20.75% completed...
2017-06-19 22:40:26: 25.94% completed...
2017-06-19 22:40:27: 31.13% completed...
2017-06-19 22:40:27: 36.32% completed...
2017-06-19 22:40:27: 41.51% completed...
2017-06-19 22:40:27: 46.70% completed...
2017-06-19 22:40:28: 51.89% completed...
2017-06-19 22:40:28: 57.08% completed...
2017-06-19 22:40:28: 62.26% completed...
2017-06-19 22:40:28: 67.45% completed...
2017-06-19 22:40:29: 72.64% completed...
2017-06-19 22:40:29: 77.83% completed...
2017-06-19 22:40:29: 83.02% completed...
2017-06-19 22:40:30: 88.21% completed...
2017-06-19 22:40:30: 93.40% completed...
2017-06-19 22:40:30: 98.58% completed...
2017-06-19 22:40:30: 100.00% completed.
2017-06-19 22:40:30: End of calculation.
2017-06-19 22:40:30: Total calculation time: 7192 ms.
done
computing RF ...
done
All done!
