pruning ...
done
computing MS ...
TreeCmp version 1.0-b291

Active options:
Type of the analysis:  one-to-all comparison mode (-r)
Metrics:
  1. MatchingSplit (ms)
Input file: ../gene_trees/randprune/xen.can.gt.randprune.0.105.trees
Output file: ../results/xen.can.randprune.0.105.MS.dat
Additional options:
P - Prune compared trees if needed (trees can have different leaf sets).
-----
2017-06-19 22:39:46: Start of scanning input file: ../gene_trees/randprune/xen.can.gt.randprune.0.105.trees
2017-06-19 22:39:50: End of scanning input file: ../gene_trees/randprune/xen.can.gt.randprune.0.105.trees
2017-06-19 22:39:50: 212 valid trees found in file: ../gene_trees/randprune/xen.can.gt.randprune.0.105.trees
2017-06-19 22:39:50: Start of calculation...please wait...
2017-06-19 22:39:50: 0.00% completed...
2017-06-19 22:39:51: 5.19% completed...
2017-06-19 22:39:52: 10.38% completed...
2017-06-19 22:39:53: 15.57% completed...
2017-06-19 22:39:53: 20.75% completed...
2017-06-19 22:39:54: 25.94% completed...
2017-06-19 22:39:54: 31.13% completed...
2017-06-19 22:39:55: 36.32% completed...
2017-06-19 22:39:55: 41.51% completed...
2017-06-19 22:39:55: 46.70% completed...
2017-06-19 22:39:55: 51.89% completed...
2017-06-19 22:39:56: 57.08% completed...
2017-06-19 22:39:56: 62.26% completed...
2017-06-19 22:39:56: 67.45% completed...
2017-06-19 22:39:56: 72.64% completed...
2017-06-19 22:39:57: 77.83% completed...
2017-06-19 22:39:57: 83.02% completed...
2017-06-19 22:39:57: 88.21% completed...
2017-06-19 22:39:57: 93.40% completed...
2017-06-19 22:39:58: 98.58% completed...
2017-06-19 22:39:58: 100.00% completed.
2017-06-19 22:39:58: End of calculation.
2017-06-19 22:39:58: Total calculation time: 7887 ms.
done
computing RF ...
done
All done!
