pruning ...
done
computing MS ...
TreeCmp version 1.0-b291

Active options:
Type of the analysis:  one-to-all comparison mode (-r)
Metrics:
  1. MatchingSplit (ms)
Input file: ../gene_trees/randprune/xen.can.gt.randprune.0.065.trees
Output file: ../results/xen.can.randprune.0.065.MS.dat
Additional options:
P - Prune compared trees if needed (trees can have different leaf sets).
-----
2017-06-19 22:39:13: Start of scanning input file: ../gene_trees/randprune/xen.can.gt.randprune.0.065.trees
2017-06-19 22:39:17: End of scanning input file: ../gene_trees/randprune/xen.can.gt.randprune.0.065.trees
2017-06-19 22:39:17: 212 valid trees found in file: ../gene_trees/randprune/xen.can.gt.randprune.0.065.trees
2017-06-19 22:39:17: Start of calculation...please wait...
2017-06-19 22:39:17: 0.00% completed...
2017-06-19 22:39:18: 5.19% completed...
2017-06-19 22:39:19: 10.38% completed...
2017-06-19 22:39:20: 15.57% completed...
2017-06-19 22:39:20: 20.75% completed...
2017-06-19 22:39:21: 25.94% completed...
2017-06-19 22:39:22: 31.13% completed...
2017-06-19 22:39:22: 36.32% completed...
2017-06-19 22:39:22: 41.51% completed...
2017-06-19 22:39:23: 46.70% completed...
2017-06-19 22:39:23: 51.89% completed...
2017-06-19 22:39:23: 57.08% completed...
2017-06-19 22:39:24: 62.26% completed...
2017-06-19 22:39:24: 67.45% completed...
2017-06-19 22:39:24: 72.64% completed...
2017-06-19 22:39:24: 77.83% completed...
2017-06-19 22:39:25: 83.02% completed...
2017-06-19 22:39:25: 88.21% completed...
2017-06-19 22:39:25: 93.40% completed...
2017-06-19 22:39:25: 98.58% completed...
2017-06-19 22:39:25: 100.00% completed.
2017-06-19 22:39:25: End of calculation.
2017-06-19 22:39:25: Total calculation time: 8538 ms.
done
computing RF ...
done
All done!
