pruning
compute MS
TreeCmp version 1.0-b291

Active options:
Type of the analysis:  one-to-all comparison mode (-r)
Metrics:
  1. MatchingSplit (ms)
Input file: ../gene_trees/rooted_pruning/xen.rs.gt.trees.3.80.trees
Output file: ../results/xen.rs.trees.3.80.MS.dat
Additional options:
P - Prune compared trees if needed (trees can have different leaf sets).
-----
2017-06-19 23:34:52: Start of scanning input file: ../gene_trees/rooted_pruning/xen.rs.gt.trees.3.80.trees
2017-06-19 23:34:52: End of scanning input file: ../gene_trees/rooted_pruning/xen.rs.gt.trees.3.80.trees
2017-06-19 23:34:52: 393 valid trees found in file: ../gene_trees/rooted_pruning/xen.rs.gt.trees.3.80.trees
2017-06-19 23:34:53: Start of calculation...please wait...
2017-06-19 23:34:53: 0.00% completed...
2017-06-19 23:34:53: 5.09% completed...
2017-06-19 23:34:53: 10.18% completed...
2017-06-19 23:34:53: 15.27% completed...
2017-06-19 23:34:54: 20.36% completed...
2017-06-19 23:34:54: 25.45% completed...
2017-06-19 23:34:54: 30.53% completed...
2017-06-19 23:34:54: 35.62% completed...
2017-06-19 23:34:54: 40.71% completed...
2017-06-19 23:34:55: 45.80% completed...
2017-06-19 23:34:55: 50.89% completed...
2017-06-19 23:34:55: 55.98% completed...
2017-06-19 23:34:55: 61.07% completed...
2017-06-19 23:34:55: 66.16% completed...
2017-06-19 23:34:55: 71.25% completed...
2017-06-19 23:34:55: 76.34% completed...
2017-06-19 23:34:55: 81.42% completed...
2017-06-19 23:34:55: 86.51% completed...
2017-06-19 23:34:55: 91.60% completed...
2017-06-19 23:34:56: 96.69% completed...
2017-06-19 23:34:56: 100.00% completed.
2017-06-19 23:34:56: End of calculation.
2017-06-19 23:34:56: Total calculation time: 3113 ms.
compute RF
