pruning ...
done
computing MS ...
TreeCmp version 1.0-b291

Active options:
Type of the analysis:  one-to-all comparison mode (-r)
Metrics:
  1. MatchingSplit (ms)
Input file: ../gene_trees/randprune/xen.can.gt.randprune.0.090.trees
Output file: ../results/xen.can.randprune.0.090.MS.dat
Additional options:
P - Prune compared trees if needed (trees can have different leaf sets).
-----
2017-06-19 22:39:38: Start of scanning input file: ../gene_trees/randprune/xen.can.gt.randprune.0.090.trees
2017-06-19 22:39:41: End of scanning input file: ../gene_trees/randprune/xen.can.gt.randprune.0.090.trees
2017-06-19 22:39:41: 212 valid trees found in file: ../gene_trees/randprune/xen.can.gt.randprune.0.090.trees
2017-06-19 22:39:41: Start of calculation...please wait...
2017-06-19 22:39:41: 0.00% completed...
2017-06-19 22:39:43: 5.19% completed...
2017-06-19 22:39:43: 10.38% completed...
2017-06-19 22:39:44: 15.57% completed...
2017-06-19 22:39:44: 20.75% completed...
2017-06-19 22:39:45: 25.94% completed...
2017-06-19 22:39:45: 31.13% completed...
2017-06-19 22:39:46: 36.32% completed...
2017-06-19 22:39:46: 41.51% completed...
2017-06-19 22:39:46: 46.70% completed...
2017-06-19 22:39:47: 51.89% completed...
2017-06-19 22:39:47: 57.08% completed...
2017-06-19 22:39:47: 62.26% completed...
2017-06-19 22:39:48: 67.45% completed...
2017-06-19 22:39:48: 72.64% completed...
2017-06-19 22:39:49: 77.83% completed...
2017-06-19 22:39:49: 83.02% completed...
2017-06-19 22:39:50: 88.21% completed...
2017-06-19 22:39:50: 93.40% completed...
2017-06-19 22:39:50: 98.58% completed...
2017-06-19 22:39:50: 100.00% completed.
2017-06-19 22:39:50: End of calculation.
2017-06-19 22:39:50: Total calculation time: 9055 ms.
done
computing RF ...
done
All done!
