pruning
astral scoring
extract occupancy
compute MS
TreeCmp version 1.0-b291

Active options:
Type of the analysis:  one-to-all comparison mode (-r)
Metrics:
  1. MatchingSplit (ms)
Input file: ../gene_trees/rooted_pruning/av.14k.intron.gt.mixed.3.5.trees
Output file: ../results/av.14k.intron.mixed.3.5.MS.dat
Additional options:
P - Prune compared trees if needed (trees can have different leaf sets).
-----
2017-06-15 13:11:07: Start of scanning input file: ../gene_trees/rooted_pruning/av.14k.intron.gt.mixed.3.5.trees
2017-06-15 13:11:08: End of scanning input file: ../gene_trees/rooted_pruning/av.14k.intron.gt.mixed.3.5.trees
2017-06-15 13:11:08: 2516 valid trees found in file: ../gene_trees/rooted_pruning/av.14k.intron.gt.mixed.3.5.trees
2017-06-15 13:11:08: Start of calculation...please wait...
2017-06-15 13:11:08: 0.00% completed...
2017-06-15 13:11:08: 5.01% completed...
2017-06-15 13:11:08: 10.02% completed...
2017-06-15 13:11:08: 15.02% completed...
2017-06-15 13:11:08: 20.03% completed...
2017-06-15 13:11:09: 25.04% completed...
2017-06-15 13:11:09: 30.05% completed...
2017-06-15 13:11:09: 35.06% completed...
2017-06-15 13:11:09: 40.06% completed...
2017-06-15 13:11:09: 45.07% completed...
2017-06-15 13:11:09: 50.08% completed...
2017-06-15 13:11:09: 55.09% completed...
2017-06-15 13:11:09: 60.10% completed...
2017-06-15 13:11:09: 65.10% completed...
2017-06-15 13:11:09: 70.11% completed...
2017-06-15 13:11:09: 75.12% completed...
2017-06-15 13:11:09: 80.13% completed...
2017-06-15 13:11:09: 85.14% completed...
2017-06-15 13:11:10: 90.14% completed...
2017-06-15 13:11:10: 95.15% completed...
2017-06-15 13:11:10: 100.00% completed.
2017-06-15 13:11:10: End of calculation.
2017-06-15 13:11:10: Total calculation time: 2139 ms.
compute RF
extract quartet support and branch lenghts
Splits	Found	45	Total	45	Frac	1	MaxLnDf	2.5	Ratio	0.91	MaxBtDf	5.53
