computing Astral species tree
done
computing quartet score by astral ...
done
computing local support by astral ...
done
extracting occupancy ...
done
computing MS ...
TreeCmp version 1.0-b291

Active options:
Type of the analysis:  one-to-all comparison mode (-r)
Metrics:
  1. MatchingSplit (ms)
Input file: ../gene_trees/original/av.14k.exon.gt.trees
Output file: ../results/av.14k.exon.org.MS.dat
Additional options:
P - Prune compared trees if needed (trees can have different leaf sets).
-----
2017-06-15 18:03:37: Start of scanning input file: ../gene_trees/original/av.14k.exon.gt.trees
2017-06-15 18:03:38: End of scanning input file: ../gene_trees/original/av.14k.exon.gt.trees
2017-06-15 18:03:38: 8251 valid trees found in file: ../gene_trees/original/av.14k.exon.gt.trees
2017-06-15 18:03:38: Start of calculation...please wait...
2017-06-15 18:03:38: 0.00% completed...
2017-06-15 18:03:38: 5.01% completed...
2017-06-15 18:03:39: 10.01% completed...
2017-06-15 18:03:39: 15.02% completed...
2017-06-15 18:03:39: 20.02% completed...
2017-06-15 18:03:39: 25.03% completed...
2017-06-15 18:03:39: 30.03% completed...
2017-06-15 18:03:39: 35.04% completed...
2017-06-15 18:03:40: 40.04% completed...
2017-06-15 18:03:40: 45.05% completed...
2017-06-15 18:03:40: 50.05% completed...
2017-06-15 18:03:40: 55.06% completed...
2017-06-15 18:03:40: 60.07% completed...
2017-06-15 18:03:40: 65.07% completed...
2017-06-15 18:03:41: 70.08% completed...
2017-06-15 18:03:41: 75.08% completed...
2017-06-15 18:03:41: 80.09% completed...
2017-06-15 18:03:41: 85.09% completed...
2017-06-15 18:03:41: 90.10% completed...
2017-06-15 18:03:41: 95.10% completed...
2017-06-15 18:03:41: 100.00% completed.
2017-06-15 18:03:41: End of calculation.
2017-06-15 18:03:41: Total calculation time: 3260 ms.
done
computing RF ...
done
All done!
