TreeCmp version 1.0-b291

Active options:
Type of the analysis:  one-to-all comparison mode (-r)
Metrics:
  1. MatchingSplit (ms)
Input file: ../gene_trees/rogueNarok/av.14k.intron.RnR.Lhalf.trees
Output file: ../results/av.14k.intron.RnR.Lhalf.MS.dat
Additional options:
P - Prune compared trees if needed (trees can have different leaf sets).
-----
2017-06-15 12:03:29: Start of scanning input file: ../gene_trees/rogueNarok/av.14k.intron.RnR.Lhalf.trees
2017-06-15 12:03:31: End of scanning input file: ../gene_trees/rogueNarok/av.14k.intron.RnR.Lhalf.trees
2017-06-15 12:03:31: 2516 valid trees found in file: ../gene_trees/rogueNarok/av.14k.intron.RnR.Lhalf.trees
2017-06-15 12:03:31: Start of calculation...please wait...
2017-06-15 12:03:31: 0.00% completed...
2017-06-15 12:03:32: 5.01% completed...
2017-06-15 12:03:33: 10.02% completed...
2017-06-15 12:03:33: 15.02% completed...
2017-06-15 12:03:33: 20.03% completed...
2017-06-15 12:03:34: 25.04% completed...
2017-06-15 12:03:34: 30.05% completed...
2017-06-15 12:03:34: 35.06% completed...
2017-06-15 12:03:34: 40.06% completed...
2017-06-15 12:03:34: 45.07% completed...
2017-06-15 12:03:35: 50.08% completed...
2017-06-15 12:03:35: 55.09% completed...
2017-06-15 12:03:35: 60.10% completed...
2017-06-15 12:03:35: 65.10% completed...
2017-06-15 12:03:35: 70.11% completed...
2017-06-15 12:03:36: 75.12% completed...
2017-06-15 12:03:36: 80.13% completed...
2017-06-15 12:03:36: 85.14% completed...
2017-06-15 12:03:36: 90.14% completed...
2017-06-15 12:03:36: 95.15% completed...
2017-06-15 12:03:36: 100.00% completed.
2017-06-15 12:03:36: End of calculation.
2017-06-15 12:03:36: Total calculation time: 5032 ms.
Splits	Found	45	Total	45	Frac	1	MaxLnDf	0.791	Ratio	0.957	MaxBtDf	3.29
