pruning ...
done
quartet scoring by astral ...
done
computing local support by astral ...
done
extracting occupancy ...
done
computing MS ...
TreeCmp version 1.0-b291

Active options:
Type of the analysis:  one-to-all comparison mode (-r)
Metrics:
  1. MatchingSplit (ms)
Input file: ../gene_trees/randprune/av.14k.intron.gt.randprune.med.0.1.trees
Output file: ../results/av.14k.intron.randprune.med.0.1.MS.dat
Additional options:
P - Prune compared trees if needed (trees can have different leaf sets).
-----
2017-06-15 13:08:25: Start of scanning input file: ../gene_trees/randprune/av.14k.intron.gt.randprune.med.0.1.trees
2017-06-15 13:08:26: End of scanning input file: ../gene_trees/randprune/av.14k.intron.gt.randprune.med.0.1.trees
2017-06-15 13:08:26: 2516 valid trees found in file: ../gene_trees/randprune/av.14k.intron.gt.randprune.med.0.1.trees
2017-06-15 13:08:26: Start of calculation...please wait...
2017-06-15 13:08:26: 0.00% completed...
2017-06-15 13:08:26: 5.01% completed...
2017-06-15 13:08:27: 10.02% completed...
2017-06-15 13:08:27: 15.02% completed...
2017-06-15 13:08:27: 20.03% completed...
2017-06-15 13:08:27: 25.04% completed...
2017-06-15 13:08:27: 30.05% completed...
2017-06-15 13:08:27: 35.06% completed...
2017-06-15 13:08:27: 40.06% completed...
2017-06-15 13:08:27: 45.07% completed...
2017-06-15 13:08:28: 50.08% completed...
2017-06-15 13:08:28: 55.09% completed...
2017-06-15 13:08:28: 60.10% completed...
2017-06-15 13:08:28: 65.10% completed...
2017-06-15 13:08:28: 70.11% completed...
2017-06-15 13:08:28: 75.12% completed...
2017-06-15 13:08:28: 80.13% completed...
2017-06-15 13:08:28: 85.14% completed...
2017-06-15 13:08:28: 90.14% completed...
2017-06-15 13:08:28: 95.15% completed...
2017-06-15 13:08:28: 100.00% completed.
2017-06-15 13:08:28: End of calculation.
2017-06-15 13:08:28: Total calculation time: 2464 ms.
done
computing RF ...
done
comparing quartet score to original ...
Splits	Found	45	Total	45	Frac	1	MaxLnDf	0.134	Ratio	0.997	MaxBtDf	0.76
done
comparing local support to original ...
Splits	Found	45	Total	45	Frac	1	MaxLnDf	0.134	Ratio	0.997	MaxBtDf	0.76
done
All done!
