quartet scoring by astral ...
done
computing local support by astral ...
done
extracting occupancy ...
done
computing MS ...
TreeCmp version 1.0-b291

Active options:
Type of the analysis:  one-to-all comparison mode (-r)
Metrics:
  1. MatchingSplit (ms)
Input file: ../gene_trees/LBF/av.14k.exon.gt.LBF.med.0.1.trees
Output file: ../results/av.14k.exon.med.0.1.MS.dat
Additional options:
P - Prune compared trees if needed (trees can have different leaf sets).
-----
2017-06-15 19:49:12: Start of scanning input file: ../gene_trees/LBF/av.14k.exon.gt.LBF.med.0.1.trees
2017-06-15 19:49:17: End of scanning input file: ../gene_trees/LBF/av.14k.exon.gt.LBF.med.0.1.trees
2017-06-15 19:49:17: 8251 valid trees found in file: ../gene_trees/LBF/av.14k.exon.gt.LBF.med.0.1.trees
2017-06-15 19:49:17: Start of calculation...please wait...
2017-06-15 19:49:17: 0.00% completed...
2017-06-15 19:49:18: 5.01% completed...
2017-06-15 19:49:19: 10.01% completed...
2017-06-15 19:49:20: 15.02% completed...
2017-06-15 19:49:20: 20.02% completed...
2017-06-15 19:49:21: 25.03% completed...
2017-06-15 19:49:21: 30.03% completed...
2017-06-15 19:49:22: 35.04% completed...
2017-06-15 19:49:22: 40.04% completed...
2017-06-15 19:49:23: 45.05% completed...
2017-06-15 19:49:23: 50.05% completed...
2017-06-15 19:49:24: 55.06% completed...
2017-06-15 19:49:24: 60.07% completed...
2017-06-15 19:49:25: 65.07% completed...
2017-06-15 19:49:25: 70.08% completed...
2017-06-15 19:49:26: 75.08% completed...
2017-06-15 19:49:26: 80.09% completed...
2017-06-15 19:49:27: 85.09% completed...
2017-06-15 19:49:27: 90.10% completed...
2017-06-15 19:49:27: 95.10% completed...
2017-06-15 19:49:28: 100.00% completed.
2017-06-15 19:49:28: End of calculation.
2017-06-15 19:49:28: Total calculation time: 10953 ms.
done
computing RF ...
done
comparing quartet score to original ...
Splits	Found	45	Total	45	Frac	1	MaxLnDf	0.318	Ratio	0.921	MaxBtDf	3
done
comparing local support to original ...
Splits	Found	45	Total	45	Frac	1	MaxLnDf	0.318	Ratio	0.921	MaxBtDf	3
done
All done!
