TreeCmp version 1.0-b291

Active options:
Type of the analysis:  one-to-all comparison mode (-r)
Metrics:
  1. MatchingSplit (ms)
Input file: ../gene_trees/rogueNarok/av.14k.exon.RnR.L3quart.trees
Output file: ../results/av.14k.exon.RnR.L3quart.MS.dat
Additional options:
P - Prune compared trees if needed (trees can have different leaf sets).
-----
2017-06-15 19:48:37: Start of scanning input file: ../gene_trees/rogueNarok/av.14k.exon.RnR.L3quart.trees
2017-06-15 19:48:45: End of scanning input file: ../gene_trees/rogueNarok/av.14k.exon.RnR.L3quart.trees
2017-06-15 19:48:45: 8251 valid trees found in file: ../gene_trees/rogueNarok/av.14k.exon.RnR.L3quart.trees
2017-06-15 19:48:45: Start of calculation...please wait...
2017-06-15 19:48:45: 0.00% completed...
2017-06-15 19:48:47: 5.01% completed...
2017-06-15 19:48:48: 10.01% completed...
2017-06-15 19:48:49: 15.02% completed...
2017-06-15 19:48:49: 20.02% completed...
2017-06-15 19:48:50: 25.03% completed...
2017-06-15 19:48:51: 30.03% completed...
2017-06-15 19:48:52: 35.04% completed...
2017-06-15 19:48:53: 40.04% completed...
2017-06-15 19:48:54: 45.05% completed...
2017-06-15 19:48:54: 50.05% completed...
2017-06-15 19:48:55: 55.06% completed...
2017-06-15 19:48:55: 60.07% completed...
2017-06-15 19:48:56: 65.07% completed...
2017-06-15 19:48:57: 70.08% completed...
2017-06-15 19:48:58: 75.08% completed...
2017-06-15 19:48:59: 80.09% completed...
2017-06-15 19:48:59: 85.09% completed...
2017-06-15 19:49:00: 90.10% completed...
2017-06-15 19:49:00: 95.10% completed...
2017-06-15 19:49:01: 100.00% completed.
2017-06-15 19:49:01: End of calculation.
2017-06-15 19:49:01: Total calculation time: 16493 ms.
Splits	Found	45	Total	45	Frac	1	MaxLnDf	0.0136	Ratio	0.997	MaxBtDf	0.14
