pruning
(standard_in) 1: syntax error
(standard_in) 1: syntax error
Traceback (most recent call last):
  File "/home/uym2/my_gits/myTools/prune_by_threshold.py", line 44, in <module>
    thres = float(argv[2])
IndexError: list index out of range
(standard_in) 1: syntax error
(standard_in) 1: syntax error
Traceback (most recent call last):
  File "/home/uym2/my_gits/myTools/prune_by_threshold.py", line 44, in <module>
    thres = float(argv[2])
IndexError: list index out of range
(standard_in) 1: syntax error
(standard_in) 1: syntax error
Traceback (most recent call last):
  File "/home/uym2/my_gits/myTools/prune_by_threshold.py", line 44, in <module>
    thres = float(argv[2])
IndexError: list index out of range
astral scoring
extract occupancy
compute MS
TreeCmp version 1.0-b291

Active options:
Type of the analysis:  one-to-all comparison mode (-r)
Metrics:
  1. MatchingSplit (ms)
Input file: ../gene_trees/rooted_pruning/av.14k.exon.gt.mixed.2.0.trees
Output file: ../results/av.14k.exon.mixed.2.0.MS.dat
Additional options:
P - Prune compared trees if needed (trees can have different leaf sets).
-----
2017-06-15 20:16:46: Start of scanning input file: ../gene_trees/rooted_pruning/av.14k.exon.gt.mixed.2.0.trees
2017-06-15 20:16:48: End of scanning input file: ../gene_trees/rooted_pruning/av.14k.exon.gt.mixed.2.0.trees
2017-06-15 20:16:48: 8248 valid trees found in file: ../gene_trees/rooted_pruning/av.14k.exon.gt.mixed.2.0.trees
2017-06-15 20:16:48: Start of calculation...please wait...
2017-06-15 20:16:48: 0.00% completed...
2017-06-15 20:16:49: 5.01% completed...
2017-06-15 20:16:49: 10.01% completed...
2017-06-15 20:16:49: 15.02% completed...
2017-06-15 20:16:49: 20.03% completed...
2017-06-15 20:16:49: 25.04% completed...
2017-06-15 20:16:50: 30.04% completed...
2017-06-15 20:16:50: 35.05% completed...
2017-06-15 20:16:50: 40.06% completed...
2017-06-15 20:16:50: 45.07% completed...
2017-06-15 20:16:50: 50.07% completed...
2017-06-15 20:16:50: 55.08% completed...
2017-06-15 20:16:51: 60.09% completed...
2017-06-15 20:16:51: 65.09% completed...
2017-06-15 20:16:51: 70.10% completed...
2017-06-15 20:16:51: 75.11% completed...
2017-06-15 20:16:51: 80.12% completed...
2017-06-15 20:16:51: 85.12% completed...
2017-06-15 20:16:52: 90.13% completed...
2017-06-15 20:16:52: 95.14% completed...
2017-06-15 20:16:52: 100.00% completed.
2017-06-15 20:16:52: End of calculation.
2017-06-15 20:16:52: Total calculation time: 3897 ms.
compute RF
extract quartet support and branch lenghts
Splits	Found	45	Total	45	Frac	1	MaxLnDf	0.171	Ratio	0.997	MaxBtDf	3.61
