pruning
(standard_in) 1: syntax error
(standard_in) 1: syntax error
Traceback (most recent call last):
  File "/home/uym2/my_gits/myTools/prune_by_threshold.py", line 44, in <module>
    thres = float(argv[2])
IndexError: list index out of range
(standard_in) 1: syntax error
(standard_in) 1: syntax error
Traceback (most recent call last):
  File "/home/uym2/my_gits/myTools/prune_by_threshold.py", line 44, in <module>
    thres = float(argv[2])
IndexError: list index out of range
astral scoring
extract occupancy
compute MS
TreeCmp version 1.0-b291

Active options:
Type of the analysis:  one-to-all comparison mode (-r)
Metrics:
  1. MatchingSplit (ms)
Input file: ../gene_trees/rooted_pruning/av.14k.exon.gt.trees.4.0.trees
Output file: ../results/av.14k.exon.trees.4.0.MS.dat
Additional options:
P - Prune compared trees if needed (trees can have different leaf sets).
-----
2017-06-15 14:26:48: Start of scanning input file: ../gene_trees/rooted_pruning/av.14k.exon.gt.trees.4.0.trees
2017-06-15 14:26:49: End of scanning input file: ../gene_trees/rooted_pruning/av.14k.exon.gt.trees.4.0.trees
2017-06-15 14:26:49: 8191 valid trees found in file: ../gene_trees/rooted_pruning/av.14k.exon.gt.trees.4.0.trees
2017-06-15 14:26:49: Start of calculation...please wait...
2017-06-15 14:26:49: 0.00% completed...
Exception in thread "main" java.lang.NullPointerException
	at pal.tree.TreeUtils.getLeafIdGroup(TreeUtils.java:363)
	at treecmp.common.StatCalculator.isLeafSetsEqual(StatCalculator.java:403)
	at treecmp.common.StatCalculator.getDistance(StatCalculator.java:273)
	at treecmp.command.RunRCommand.refTreeCompareEx(RunRCommand.java:107)
	at treecmp.command.RunRCommand.refTreeCompareExecute(RunRCommand.java:69)
	at treecmp.command.RunRCommand.run(RunRCommand.java:53)
	at treecmp.Main.main(Main.java:111)
compute RF
(standard_in) 2: syntax error
(standard_in) 2: syntax error
(standard_in) 2: syntax error
(standard_in) 2: syntax error
(standard_in) 2: syntax error
(standard_in) 2: syntax error
(standard_in) 2: syntax error
(standard_in) 2: syntax error
(standard_in) 2: syntax error
(standard_in) 2: syntax error
(standard_in) 2: syntax error
(standard_in) 2: syntax error
(standard_in) 2: syntax error
(standard_in) 2: syntax error
(standard_in) 2: syntax error
(standard_in) 2: syntax error
(standard_in) 2: syntax error
(standard_in) 2: syntax error
(standard_in) 2: syntax error
(standard_in) 2: syntax error
(standard_in) 2: syntax error
(standard_in) 2: syntax error
(standard_in) 2: syntax error
(standard_in) 2: syntax error
(standard_in) 2: syntax error
(standard_in) 2: syntax error
(standard_in) 2: syntax error
(standard_in) 2: syntax error
(standard_in) 2: syntax error
(standard_in) 2: syntax error
(standard_in) 2: syntax error
(standard_in) 2: syntax error
(standard_in) 2: syntax error
(standard_in) 2: syntax error
(standard_in) 2: syntax error
(standard_in) 2: syntax error
(standard_in) 2: syntax error
(standard_in) 2: syntax error
(standard_in) 2: syntax error
(standard_in) 2: syntax error
(standard_in) 2: syntax error
(standard_in) 2: syntax error
(standard_in) 2: syntax error
(standard_in) 2: syntax error
(standard_in) 2: syntax error
(standard_in) 2: syntax error
(standard_in) 2: syntax error
(standard_in) 2: syntax error
(standard_in) 2: syntax error
(standard_in) 2: syntax error
(standard_in) 2: syntax error
(standard_in) 2: syntax error
(standard_in) 2: syntax error
(standard_in) 2: syntax error
(standard_in) 2: syntax error
(standard_in) 2: syntax error
(standard_in) 2: syntax error
(standard_in) 2: syntax error
(standard_in) 2: syntax error
(standard_in) 2: syntax error
(standard_in) 2: syntax error
(standard_in) 2: syntax error
(standard_in) 2: syntax error
(standard_in) 2: syntax error
(standard_in) 2: syntax error
(standard_in) 2: syntax error
(standard_in) 2: syntax error
(standard_in) 2: syntax error
(standard_in) 2: syntax error
(standard_in) 2: syntax error
(standard_in) 2: syntax error
(standard_in) 2: syntax error
(standard_in) 2: syntax error
(standard_in) 2: syntax error
(standard_in) 2: syntax error
(standard_in) 2: syntax error
(standard_in) 2: syntax error
(standard_in) 2: syntax error
(standard_in) 2: syntax error
(standard_in) 2: syntax error
(standard_in) 2: syntax error
(standard_in) 2: syntax error
(standard_in) 2: syntax error
(standard_in) 2: syntax error
(standard_in) 2: syntax error
(standard_in) 2: syntax error
(standard_in) 2: syntax error
(standard_in) 2: syntax error
(standard_in) 2: syntax error
(standard_in) 2: syntax error
(standard_in) 2: syntax error
(standard_in) 2: syntax error
(standard_in) 2: syntax error
(standard_in) 2: syntax error
(standard_in) 2: syntax error
(standard_in) 2: syntax error
(standard_in) 2: syntax error
(standard_in) 2: syntax error
(standard_in) 2: syntax error
(standard_in) 2: syntax error
(standard_in) 2: syntax error
(standard_in) 2: syntax error
(standard_in) 2: syntax error
(standard_in) 2: syntax error
(standard_in) 2: syntax error
(standard_in) 2: syntax error
(standard_in) 2: syntax error
(standard_in) 2: syntax error
(standard_in) 2: syntax error
(standard_in) 2: syntax error
(standard_in) 2: syntax error
(standard_in) 2: syntax error
(standard_in) 2: syntax error
(standard_in) 2: syntax error
(standard_in) 2: syntax error
(standard_in) 2: syntax error
(standard_in) 2: syntax error
(standard_in) 2: syntax error
(standard_in) 2: syntax error
(standard_in) 2: syntax error
(standard_in) 2: syntax error
(standard_in) 2: syntax error
(standard_in) 2: syntax error
(standard_in) 2: syntax error
(standard_in) 2: syntax error
(standard_in) 2: syntax error
(standard_in) 2: syntax error
(standard_in) 2: syntax error
(standard_in) 2: syntax error
(standard_in) 2: syntax error
(standard_in) 2: syntax error
(standard_in) 2: syntax error
(standard_in) 2: syntax error
(standard_in) 2: syntax error
(standard_in) 2: syntax error
(standard_in) 2: syntax error
(standard_in) 2: syntax error
(standard_in) 2: syntax error
(standard_in) 2: syntax error
(standard_in) 2: syntax error
(standard_in) 2: syntax error
(standard_in) 2: syntax error
(standard_in) 2: syntax error
(standard_in) 2: syntax error
(standard_in) 2: syntax error
(standard_in) 2: syntax error
(standard_in) 2: syntax error
(standard_in) 2: syntax error
(standard_in) 2: syntax error
(standard_in) 2: syntax error
(standard_in) 2: syntax error
(standard_in) 2: syntax error
(standard_in) 2: syntax error
(standard_in) 2: syntax error
(standard_in) 2: syntax error
(standard_in) 2: syntax error
(standard_in) 2: syntax error
(standard_in) 2: syntax error
(standard_in) 2: syntax error
(standard_in) 2: syntax error
(standard_in) 2: syntax error
(standard_in) 2: syntax error
(standard_in) 2: syntax error
(standard_in) 2: syntax error
(standard_in) 2: syntax error
(standard_in) 2: syntax error
(standard_in) 2: syntax error
(standard_in) 2: syntax error
(standard_in) 2: syntax error
(standard_in) 2: syntax error
(standard_in) 2: syntax error
(standard_in) 2: syntax error
(standard_in) 2: syntax error
(standard_in) 2: syntax error
(standard_in) 2: syntax error
(standard_in) 2: syntax error
(standard_in) 2: syntax error
(standard_in) 2: syntax error
(standard_in) 2: syntax error
(standard_in) 2: syntax error
(standard_in) 2: syntax error
(standard_in) 2: syntax error
(standard_in) 2: syntax error
(standard_in) 2: syntax error
(standard_in) 2: syntax error
(standard_in) 2: syntax error
(standard_in) 2: syntax error
(standard_in) 2: syntax error
(standard_in) 2: syntax error
(standard_in) 2: syntax error
(standard_in) 2: syntax error
(standard_in) 2: syntax error
(standard_in) 2: syntax error
(standard_in) 2: syntax error
(standard_in) 2: syntax error
(standard_in) 2: syntax error
(standard_in) 2: syntax error
(standard_in) 2: syntax error
(standard_in) 2: syntax error
(standard_in) 2: syntax error
(standard_in) 2: syntax error
(standard_in) 2: syntax error
(standard_in) 2: syntax error
(standard_in) 2: syntax error
(standard_in) 2: syntax error
(standard_in) 2: syntax error
(standard_in) 2: syntax error
(standard_in) 2: syntax error
(standard_in) 2: syntax error
(standard_in) 2: syntax error
(standard_in) 2: syntax error
(standard_in) 2: syntax error
(standard_in) 2: syntax error
(standard_in) 2: syntax error
(standard_in) 2: syntax error
(standard_in) 2: syntax error
(standard_in) 2: syntax error
(standard_in) 2: syntax error
(standard_in) 2: syntax error
(standard_in) 2: syntax error
(standard_in) 2: syntax error
(standard_in) 2: syntax error
(standard_in) 2: syntax error
(standard_in) 2: syntax error
(standard_in) 2: syntax error
(standard_in) 2: syntax error
(standard_in) 2: syntax error
(standard_in) 2: syntax error
(standard_in) 2: syntax error
(standard_in) 2: syntax error
(standard_in) 2: syntax error
(standard_in) 2: syntax error
(standard_in) 2: syntax error
(standard_in) 2: syntax error
(standard_in) 2: syntax error
(standard_in) 2: syntax error
(standard_in) 2: syntax error
(standard_in) 2: syntax error
(standard_in) 2: syntax error
(standard_in) 2: syntax error
(standard_in) 2: syntax error
(standard_in) 2: syntax error
(standard_in) 2: syntax error
(standard_in) 2: syntax error
(standard_in) 2: syntax error
(standard_in) 2: syntax error
(standard_in) 2: syntax error
(standard_in) 2: syntax error
(standard_in) 2: syntax error
(standard_in) 2: syntax error
(standard_in) 2: syntax error
(standard_in) 2: syntax error
(standard_in) 2: syntax error
(standard_in) 2: syntax error
(standard_in) 2: syntax error
(standard_in) 2: syntax error
(standard_in) 2: syntax error
(standard_in) 2: syntax error
(standard_in) 2: syntax error
(standard_in) 2: syntax error
(standard_in) 2: syntax error
(standard_in) 2: syntax error
(standard_in) 2: syntax error
(standard_in) 2: syntax error
(standard_in) 2: syntax error
(standard_in) 2: syntax error
(standard_in) 2: syntax error
(standard_in) 2: syntax error
(standard_in) 2: syntax error
(standard_in) 2: syntax error
(standard_in) 2: syntax error
(standard_in) 2: syntax error
(standard_in) 2: syntax error
(standard_in) 2: syntax error
(standard_in) 2: syntax error
(standard_in) 2: syntax error
(standard_in) 2: syntax error
(standard_in) 2: syntax error
(standard_in) 2: syntax error
(standard_in) 2: syntax error
(standard_in) 2: syntax error
(standard_in) 2: syntax error
(standard_in) 2: syntax error
(standard_in) 2: syntax error
(standard_in) 2: syntax error
(standard_in) 2: syntax error
(standard_in) 2: syntax error
(standard_in) 2: syntax error
(standard_in) 2: syntax error
(standard_in) 2: syntax error
(standard_in) 2: syntax error
(standard_in) 2: syntax error
(standard_in) 2: syntax error
(standard_in) 2: syntax error
(standard_in) 2: syntax error
(standard_in) 2: syntax error
(standard_in) 2: syntax error
(standard_in) 2: syntax error
(standard_in) 2: syntax error
(standard_in) 2: syntax error
(standard_in) 2: syntax error
(standard_in) 2: syntax error
(standard_in) 2: syntax error
(standard_in) 2: syntax error
(standard_in) 2: syntax error
(standard_in) 2: syntax error
(standard_in) 2: syntax error
(standard_in) 2: syntax error
(standard_in) 2: syntax error
(standard_in) 2: syntax error
(standard_in) 2: syntax error
(standard_in) 2: syntax error
(standard_in) 2: syntax error
(standard_in) 2: syntax error
(standard_in) 2: syntax error
(standard_in) 2: syntax error
(standard_in) 2: syntax error
(standard_in) 2: syntax error
(standard_in) 2: syntax error
(standard_in) 2: syntax error
(standard_in) 2: syntax error
(standard_in) 2: syntax error
(standard_in) 2: syntax error
(standard_in) 2: syntax error
(standard_in) 2: syntax error
(standard_in) 2: syntax error
(standard_in) 2: syntax error
(standard_in) 2: syntax error
(standard_in) 2: syntax error
(standard_in) 2: syntax error
(standard_in) 2: syntax error
(standard_in) 2: syntax error
(standard_in) 2: syntax error
(standard_in) 2: syntax error
(standard_in) 2: syntax error
(standard_in) 2: syntax error
(standard_in) 2: syntax error
(standard_in) 2: syntax error
(standard_in) 2: syntax error
(standard_in) 2: syntax error
(standard_in) 2: syntax error
(standard_in) 2: syntax error
(standard_in) 2: syntax error
(standard_in) 2: syntax error
(standard_in) 2: syntax error
(standard_in) 2: syntax error
(standard_in) 2: syntax error
(standard_in) 2: syntax error
(standard_in) 2: syntax error
(standard_in) 2: syntax error
(standard_in) 2: syntax error
(standard_in) 2: syntax error
(standard_in) 2: syntax error
(standard_in) 2: syntax error
(standard_in) 2: syntax error
(standard_in) 2: syntax error
(standard_in) 2: syntax error
(standard_in) 2: syntax error
(standard_in) 2: syntax error
(standard_in) 2: syntax error
(standard_in) 2: syntax error
(standard_in) 2: syntax error
(standard_in) 2: syntax error
(standard_in) 2: syntax error
(standard_in) 2: syntax error
(standard_in) 2: syntax error
(standard_in) 2: syntax error
(standard_in) 2: syntax error
(standard_in) 2: syntax error
(standard_in) 2: syntax error
(standard_in) 2: syntax error
(standard_in) 2: syntax error
(standard_in) 2: syntax error
(standard_in) 2: syntax error
(standard_in) 2: syntax error
(standard_in) 2: syntax error
(standard_in) 2: syntax error
(standard_in) 2: syntax error
(standard_in) 2: syntax error
(standard_in) 2: syntax error
(standard_in) 2: syntax error
(standard_in) 2: syntax error
(standard_in) 2: syntax error
(standard_in) 2: syntax error
(standard_in) 2: syntax error
(standard_in) 2: syntax error
(standard_in) 2: syntax error
(standard_in) 2: syntax error
(standard_in) 2: syntax error
(standard_in) 2: syntax error
(standard_in) 2: syntax error
(standard_in) 2: syntax error
(standard_in) 2: syntax error
(standard_in) 2: syntax error
(standard_in) 2: syntax error
(standard_in) 2: syntax error
(standard_in) 2: syntax error
(standard_in) 2: syntax error
(standard_in) 2: syntax error
(standard_in) 2: syntax error
(standard_in) 2: syntax error
(standard_in) 2: syntax error
(standard_in) 2: syntax error
(standard_in) 2: syntax error
(standard_in) 2: syntax error
(standard_in) 2: syntax error
(standard_in) 2: syntax error
(standard_in) 2: syntax error
(standard_in) 2: syntax error
(standard_in) 2: syntax error
(standard_in) 2: syntax error
(standard_in) 2: syntax error
(standard_in) 2: syntax error
(standard_in) 2: syntax error
(standard_in) 2: syntax error
(standard_in) 2: syntax error
(standard_in) 2: syntax error
(standard_in) 2: syntax error
(standard_in) 2: syntax error
(standard_in) 2: syntax error
(standard_in) 2: syntax error
(standard_in) 2: syntax error
(standard_in) 2: syntax error
(standard_in) 2: syntax error
(standard_in) 2: syntax error
(standard_in) 2: syntax error
(standard_in) 2: syntax error
(standard_in) 2: syntax error
(standard_in) 2: syntax error
(standard_in) 2: syntax error
(standard_in) 2: syntax error
(standard_in) 2: syntax error
(standard_in) 2: syntax error
(standard_in) 2: syntax error
(standard_in) 2: syntax error
(standard_in) 2: syntax error
(standard_in) 2: syntax error
(standard_in) 2: syntax error
(standard_in) 2: syntax error
(standard_in) 2: syntax error
(standard_in) 2: syntax error
(standard_in) 2: syntax error
(standard_in) 2: syntax error
(standard_in) 2: syntax error
(standard_in) 2: syntax error
(standard_in) 2: syntax error
(standard_in) 2: syntax error
(standard_in) 2: syntax error
(standard_in) 2: syntax error
(standard_in) 2: syntax error
(standard_in) 2: syntax error
(standard_in) 2: syntax error
(standard_in) 2: syntax error
(standard_in) 2: syntax error
(standard_in) 2: syntax error
(standard_in) 2: syntax error
(standard_in) 2: syntax error
(standard_in) 2: syntax error
(standard_in) 2: syntax error
(standard_in) 2: syntax error
(standard_in) 2: syntax error
(standard_in) 2: syntax error
(standard_in) 2: syntax error
(standard_in) 2: syntax error
(standard_in) 2: syntax error
(standard_in) 2: syntax error
(standard_in) 2: syntax error
(standard_in) 2: syntax error
(standard_in) 2: syntax error
(standard_in) 2: syntax error
(standard_in) 2: syntax error
(standard_in) 2: syntax error
(standard_in) 2: syntax error
(standard_in) 2: syntax error
(standard_in) 2: syntax error
(standard_in) 2: syntax error
(standard_in) 2: syntax error
(standard_in) 2: syntax error
(standard_in) 2: syntax error
(standard_in) 2: syntax error
(standard_in) 2: syntax error
(standard_in) 2: syntax error
(standard_in) 2: syntax error
(standard_in) 2: syntax error
(standard_in) 2: syntax error
(standard_in) 2: syntax error
(standard_in) 2: syntax error
(standard_in) 2: syntax error
(standard_in) 2: syntax error
(standard_in) 2: syntax error
(standard_in) 2: syntax error
(standard_in) 2: syntax error
(standard_in) 2: syntax error
(standard_in) 2: syntax error
(standard_in) 2: syntax error
(standard_in) 2: syntax error
(standard_in) 2: syntax error
(standard_in) 2: syntax error
(standard_in) 2: syntax error
(standard_in) 2: syntax error
(standard_in) 2: syntax error
(standard_in) 2: syntax error
(standard_in) 2: syntax error
(standard_in) 2: syntax error
(standard_in) 2: syntax error
(standard_in) 2: syntax error
(standard_in) 2: syntax error
(standard_in) 2: syntax error
(standard_in) 2: syntax error
(standard_in) 2: syntax error
(standard_in) 2: syntax error
(standard_in) 2: syntax error
(standard_in) 2: syntax error
(standard_in) 2: syntax error
(standard_in) 2: syntax error
(standard_in) 2: syntax error
(standard_in) 2: syntax error
(standard_in) 2: syntax error
(standard_in) 2: syntax error
(standard_in) 2: syntax error
(standard_in) 2: syntax error
(standard_in) 2: syntax error
(standard_in) 2: syntax error
(standard_in) 2: syntax error
(standard_in) 2: syntax error
(standard_in) 2: syntax error
(standard_in) 2: syntax error
(standard_in) 2: syntax error
(standard_in) 2: syntax error
(standard_in) 2: syntax error
(standard_in) 2: syntax error
(standard_in) 2: syntax error
(standard_in) 2: syntax error
(standard_in) 2: syntax error
(standard_in) 2: syntax error
(standard_in) 2: syntax error
(standard_in) 2: syntax error
(standard_in) 2: syntax error
(standard_in) 2: syntax error
(standard_in) 2: syntax error
(standard_in) 2: syntax error
(standard_in) 2: syntax error
(standard_in) 2: syntax error
(standard_in) 2: syntax error
(standard_in) 2: syntax error
(standard_in) 2: syntax error
(standard_in) 2: syntax error
(standard_in) 2: syntax error
(standard_in) 2: syntax error
(standard_in) 2: syntax error
(standard_in) 2: syntax error
(standard_in) 2: syntax error
(standard_in) 2: syntax error
(standard_in) 2: syntax error
(standard_in) 2: syntax error
(standard_in) 2: syntax error
(standard_in) 2: syntax error
(standard_in) 2: syntax error
(standard_in) 2: syntax error
(standard_in) 2: syntax error
(standard_in) 2: syntax error
(standard_in) 2: syntax error
(standard_in) 2: syntax error
(standard_in) 2: syntax error
(standard_in) 2: syntax error
(standard_in) 2: syntax error
(standard_in) 2: syntax error
(standard_in) 2: syntax error
(standard_in) 2: syntax error
(standard_in) 2: syntax error
(standard_in) 2: syntax error
(standard_in) 2: syntax error
(standard_in) 2: syntax error
(standard_in) 2: syntax error
(standard_in) 2: syntax error
(standard_in) 2: syntax error
(standard_in) 2: syntax error
(standard_in) 2: syntax error
(standard_in) 2: syntax error
(standard_in) 2: syntax error
(standard_in) 2: syntax error
(standard_in) 2: syntax error
(standard_in) 2: syntax error
(standard_in) 2: syntax error
(standard_in) 2: syntax error
(standard_in) 2: syntax error
(standard_in) 2: syntax error
(standard_in) 2: syntax error
(standard_in) 2: syntax error
(standard_in) 2: syntax error
(standard_in) 2: syntax error
(standard_in) 2: syntax error
(standard_in) 2: syntax error
(standard_in) 2: syntax error
(standard_in) 2: syntax error
(standard_in) 2: syntax error
(standard_in) 2: syntax error
(standard_in) 2: syntax error
(standard_in) 2: syntax error
(standard_in) 2: syntax error
(standard_in) 2: syntax error
(standard_in) 2: syntax error
(standard_in) 2: syntax error
(standard_in) 2: syntax error
(standard_in) 2: syntax error
(standard_in) 2: syntax error
(standard_in) 2: syntax error
(standard_in) 2: syntax error
(standard_in) 2: syntax error
(standard_in) 2: syntax error
(standard_in) 2: syntax error
(standard_in) 2: syntax error
(standard_in) 2: syntax error
(standard_in) 2: syntax error
(standard_in) 2: syntax error
(standard_in) 2: syntax error
(standard_in) 2: syntax error
(standard_in) 2: syntax error
(standard_in) 2: syntax error
(standard_in) 2: syntax error
(standard_in) 2: syntax error
(standard_in) 2: syntax error
(standard_in) 2: syntax error
(standard_in) 2: syntax error
(standard_in) 2: syntax error
(standard_in) 2: syntax error
(standard_in) 2: syntax error
(standard_in) 2: syntax error
(standard_in) 2: syntax error
(standard_in) 2: syntax error
(standard_in) 2: syntax error
(standard_in) 2: syntax error
(standard_in) 2: syntax error
(standard_in) 2: syntax error
(standard_in) 2: syntax error
(standard_in) 2: syntax error
(standard_in) 2: syntax error
(standard_in) 2: syntax error
(standard_in) 2: syntax error
(standard_in) 2: syntax error
(standard_in) 2: syntax error
(standard_in) 2: syntax error
(standard_in) 2: syntax error
(standard_in) 2: syntax error
(standard_in) 2: syntax error
(standard_in) 2: syntax error
(standard_in) 2: syntax error
(standard_in) 2: syntax error
(standard_in) 2: syntax error
(standard_in) 2: syntax error
(standard_in) 2: syntax error
(standard_in) 2: syntax error
(standard_in) 2: syntax error
(standard_in) 2: syntax error
(standard_in) 2: syntax error
(standard_in) 2: syntax error
(standard_in) 2: syntax error
(standard_in) 2: syntax error
(standard_in) 2: syntax error
(standard_in) 2: syntax error
(standard_in) 2: syntax error
(standard_in) 2: syntax error
(standard_in) 2: syntax error
(standard_in) 2: syntax error
(standard_in) 2: syntax error
(standard_in) 2: syntax error
(standard_in) 2: syntax error
(standard_in) 2: syntax error
(standard_in) 2: syntax error
(standard_in) 2: syntax error
(standard_in) 2: syntax error
(standard_in) 2: syntax error
(standard_in) 2: syntax error
(standard_in) 2: syntax error
(standard_in) 2: syntax error
(standard_in) 2: syntax error
(standard_in) 2: syntax error
(standard_in) 2: syntax error
(standard_in) 2: syntax error
(standard_in) 2: syntax error
(standard_in) 2: syntax error
(standard_in) 2: syntax error
(standard_in) 2: syntax error
(standard_in) 2: syntax error
(standard_in) 2: syntax error
(standard_in) 2: syntax error
(standard_in) 2: syntax error
(standard_in) 2: syntax error
(standard_in) 2: syntax error
(standard_in) 2: syntax error
(standard_in) 2: syntax error
(standard_in) 2: syntax error
(standard_in) 2: syntax error
(standard_in) 2: syntax error
(standard_in) 2: syntax error
(standard_in) 2: syntax error
(standard_in) 2: syntax error
(standard_in) 2: syntax error
(standard_in) 2: syntax error
(standard_in) 2: syntax error
(standard_in) 2: syntax error
(standard_in) 2: syntax error
(standard_in) 2: syntax error
(standard_in) 2: syntax error
(standard_in) 2: syntax error
(standard_in) 2: syntax error
(standard_in) 2: syntax error
(standard_in) 2: syntax error
(standard_in) 2: syntax error
(standard_in) 2: syntax error
(standard_in) 2: syntax error
(standard_in) 2: syntax error
(standard_in) 2: syntax error
(standard_in) 2: syntax error
(standard_in) 2: syntax error
(standard_in) 2: syntax error
(standard_in) 2: syntax error
(standard_in) 2: syntax error
(standard_in) 2: syntax error
(standard_in) 2: syntax error
(standard_in) 2: syntax error
(standard_in) 2: syntax error
(standard_in) 2: syntax error
(standard_in) 2: syntax error
(standard_in) 2: syntax error
(standard_in) 2: syntax error
(standard_in) 2: syntax error
(standard_in) 2: syntax error
(standard_in) 2: syntax error
(standard_in) 2: syntax error
(standard_in) 2: syntax error
(standard_in) 2: syntax error
(standard_in) 2: syntax error
(standard_in) 2: syntax error
(standard_in) 2: syntax error
(standard_in) 2: syntax error
(standard_in) 2: syntax error
(standard_in) 2: syntax error
(standard_in) 2: syntax error
(standard_in) 2: syntax error
(standard_in) 2: syntax error
(standard_in) 2: syntax error
(standard_in) 2: syntax error
(standard_in) 2: syntax error
(standard_in) 2: syntax error
(standard_in) 2: syntax error
(standard_in) 2: syntax error
(standard_in) 2: syntax error
(standard_in) 2: syntax error
(standard_in) 2: syntax error
(standard_in) 2: syntax error
(standard_in) 2: syntax error
(standard_in) 2: syntax error
(standard_in) 2: syntax error
(standard_in) 2: syntax error
(standard_in) 2: syntax error
(standard_in) 2: syntax error
(standard_in) 2: syntax error
(standard_in) 2: syntax error
(standard_in) 2: syntax error
(standard_in) 2: syntax error
(standard_in) 2: syntax error
(standard_in) 2: syntax error
(standard_in) 2: syntax error
(standard_in) 2: syntax error
(standard_in) 2: syntax error
(standard_in) 2: syntax error
(standard_in) 2: syntax error
(standard_in) 2: syntax error
(standard_in) 2: syntax error
(standard_in) 2: syntax error
(standard_in) 2: syntax error
(standard_in) 2: syntax error
(standard_in) 2: syntax error
(standard_in) 2: syntax error
(standard_in) 2: syntax error
(standard_in) 2: syntax error
(standard_in) 2: syntax error
(standard_in) 2: syntax error
(standard_in) 2: syntax error
(standard_in) 2: syntax error
(standard_in) 2: syntax error
(standard_in) 2: syntax error
(standard_in) 2: syntax error
(standard_in) 2: syntax error
(standard_in) 2: syntax error
(standard_in) 2: syntax error
(standard_in) 2: syntax error
(standard_in) 2: syntax error
(standard_in) 2: syntax error
(standard_in) 2: syntax error
(standard_in) 2: syntax error
(standard_in) 2: syntax error
(standard_in) 2: syntax error
(standard_in) 2: syntax error
(standard_in) 2: syntax error
(standard_in) 2: syntax error
(standard_in) 2: syntax error
(standard_in) 2: syntax error
(standard_in) 2: syntax error
(standard_in) 2: syntax error
(standard_in) 2: syntax error
(standard_in) 2: syntax error
(standard_in) 2: syntax error
(standard_in) 2: syntax error
(standard_in) 2: syntax error
(standard_in) 2: syntax error
(standard_in) 2: syntax error
(standard_in) 2: syntax error
(standard_in) 2: syntax error
(standard_in) 2: syntax error
(standard_in) 2: syntax error
(standard_in) 2: syntax error
(standard_in) 2: syntax error
(standard_in) 2: syntax error
(standard_in) 2: syntax error
(standard_in) 2: syntax error
(standard_in) 2: syntax error
(standard_in) 2: syntax error
(standard_in) 2: syntax error
(standard_in) 2: syntax error
(standard_in) 2: syntax error
(standard_in) 2: syntax error
(standard_in) 2: syntax error
(standard_in) 2: syntax error
(standard_in) 2: syntax error
(standard_in) 2: syntax error
(standard_in) 2: syntax error
(standard_in) 2: syntax error
(standard_in) 2: syntax error
(standard_in) 2: syntax error
(standard_in) 2: syntax error
(standard_in) 2: syntax error
(standard_in) 2: syntax error
(standard_in) 2: syntax error
(standard_in) 2: syntax error
(standard_in) 2: syntax error
(standard_in) 2: syntax error
(standard_in) 2: syntax error
(standard_in) 2: syntax error
(standard_in) 2: syntax error
(standard_in) 2: syntax error
(standard_in) 2: syntax error
(standard_in) 2: syntax error
(standard_in) 2: syntax error
(standard_in) 2: syntax error
(standard_in) 2: syntax error
(standard_in) 2: syntax error
(standard_in) 2: syntax error
(standard_in) 2: syntax error
(standard_in) 2: syntax error
(standard_in) 2: syntax error
(standard_in) 2: syntax error
(standard_in) 2: syntax error
(standard_in) 2: syntax error
(standard_in) 2: syntax error
(standard_in) 2: syntax error
(standard_in) 2: syntax error
(standard_in) 2: syntax error
(standard_in) 2: syntax error
(standard_in) 2: syntax error
(standard_in) 2: syntax error
(standard_in) 2: syntax error
(standard_in) 2: syntax error
(standard_in) 2: syntax error
(standard_in) 2: syntax error
(standard_in) 2: syntax error
(standard_in) 2: syntax error
(standard_in) 2: syntax error
(standard_in) 2: syntax error
(standard_in) 2: syntax error
(standard_in) 2: syntax error
(standard_in) 2: syntax error
(standard_in) 2: syntax error
(standard_in) 2: syntax error
(standard_in) 2: syntax error
(standard_in) 2: syntax error
(standard_in) 2: syntax error
(standard_in) 2: syntax error
(standard_in) 2: syntax error
(standard_in) 2: syntax error
(standard_in) 2: syntax error
(standard_in) 2: syntax error
(standard_in) 2: syntax error
(standard_in) 2: syntax error
(standard_in) 2: syntax error
(standard_in) 2: syntax error
(standard_in) 2: syntax error
(standard_in) 2: syntax error
(standard_in) 2: syntax error
(standard_in) 2: syntax error
(standard_in) 2: syntax error
(standard_in) 2: syntax error
(standard_in) 2: syntax error
(standard_in) 2: syntax error
(standard_in) 2: syntax error
(standard_in) 2: syntax error
(standard_in) 2: syntax error
(standard_in) 2: syntax error
(standard_in) 2: syntax error
(standard_in) 2: syntax error
(standard_in) 2: syntax error
(standard_in) 2: syntax error
(standard_in) 2: syntax error
(standard_in) 2: syntax error
(standard_in) 2: syntax error
(standard_in) 2: syntax error
(standard_in) 2: syntax error
(standard_in) 2: syntax error
(standard_in) 2: syntax error
(standard_in) 2: syntax error
(standard_in) 2: syntax error
(standard_in) 2: syntax error
(standard_in) 2: syntax error
(standard_in) 2: syntax error
(standard_in) 2: syntax error
(standard_in) 2: syntax error
(standard_in) 2: syntax error
(standard_in) 2: syntax error
(standard_in) 2: syntax error
(standard_in) 2: syntax error
(standard_in) 2: syntax error
(standard_in) 2: syntax error
(standard_in) 2: syntax error
(standard_in) 2: syntax error
(standard_in) 2: syntax error
(standard_in) 2: syntax error
(standard_in) 2: syntax error
(standard_in) 2: syntax error
(standard_in) 2: syntax error
(standard_in) 2: syntax error
(standard_in) 2: syntax error
(standard_in) 2: syntax error
(standard_in) 2: syntax error
(standard_in) 2: syntax error
(standard_in) 2: syntax error
(standard_in) 2: syntax error
(standard_in) 2: syntax error
(standard_in) 2: syntax error
(standard_in) 2: syntax error
(standard_in) 2: syntax error
(standard_in) 2: syntax error
(standard_in) 2: syntax error
(standard_in) 2: syntax error
(standard_in) 2: syntax error
(standard_in) 2: syntax error
(standard_in) 2: syntax error
(standard_in) 2: syntax error
(standard_in) 2: syntax error
(standard_in) 2: syntax error
(standard_in) 2: syntax error
(standard_in) 2: syntax error
(standard_in) 2: syntax error
(standard_in) 2: syntax error
(standard_in) 2: syntax error
(standard_in) 2: syntax error
(standard_in) 2: syntax error
(standard_in) 2: syntax error
(standard_in) 2: syntax error
(standard_in) 2: syntax error
(standard_in) 2: syntax error
(standard_in) 2: syntax error
(standard_in) 2: syntax error
(standard_in) 2: syntax error
(standard_in) 2: syntax error
(standard_in) 2: syntax error
(standard_in) 2: syntax error
(standard_in) 2: syntax error
(standard_in) 2: syntax error
(standard_in) 2: syntax error
(standard_in) 2: syntax error
(standard_in) 2: syntax error
(standard_in) 2: syntax error
(standard_in) 2: syntax error
(standard_in) 2: syntax error
(standard_in) 2: syntax error
(standard_in) 2: syntax error
(standard_in) 2: syntax error
(standard_in) 2: syntax error
(standard_in) 2: syntax error
(standard_in) 2: syntax error
(standard_in) 2: syntax error
(standard_in) 2: syntax error
(standard_in) 2: syntax error
(standard_in) 2: syntax error
(standard_in) 2: syntax error
(standard_in) 2: syntax error
(standard_in) 2: syntax error
(standard_in) 2: syntax error
(standard_in) 2: syntax error
(standard_in) 2: syntax error
(standard_in) 2: syntax error
(standard_in) 2: syntax error
(standard_in) 2: syntax error
(standard_in) 2: syntax error
(standard_in) 2: syntax error
(standard_in) 2: syntax error
(standard_in) 2: syntax error
(standard_in) 2: syntax error
(standard_in) 2: syntax error
(standard_in) 2: syntax error
(standard_in) 2: syntax error
(standard_in) 2: syntax error
(standard_in) 2: syntax error
(standard_in) 2: syntax error
(standard_in) 2: syntax error
(standard_in) 2: syntax error
(standard_in) 2: syntax error
(standard_in) 2: syntax error
(standard_in) 2: syntax error
(standard_in) 2: syntax error
(standard_in) 2: syntax error
(standard_in) 2: syntax error
(standard_in) 2: syntax error
(standard_in) 2: syntax error
(standard_in) 2: syntax error
(standard_in) 2: syntax error
(standard_in) 2: syntax error
(standard_in) 2: syntax error
(standard_in) 2: syntax error
(standard_in) 2: syntax error
(standard_in) 2: syntax error
(standard_in) 2: syntax error
(standard_in) 2: syntax error
(standard_in) 2: syntax error
(standard_in) 2: syntax error
(standard_in) 2: syntax error
(standard_in) 2: syntax error
(standard_in) 2: syntax error
(standard_in) 2: syntax error
(standard_in) 2: syntax error
(standard_in) 2: syntax error
(standard_in) 2: syntax error
(standard_in) 2: syntax error
(standard_in) 2: syntax error
(standard_in) 2: syntax error
(standard_in) 2: syntax error
(standard_in) 2: syntax error
(standard_in) 2: syntax error
(standard_in) 2: syntax error
(standard_in) 2: syntax error
(standard_in) 2: syntax error
(standard_in) 2: syntax error
(standard_in) 2: syntax error
(standard_in) 2: syntax error
(standard_in) 2: syntax error
(standard_in) 2: syntax error
(standard_in) 2: syntax error
(standard_in) 2: syntax error
(standard_in) 2: syntax error
(standard_in) 2: syntax error
(standard_in) 2: syntax error
(standard_in) 2: syntax error
(standard_in) 2: syntax error
(standard_in) 2: syntax error
(standard_in) 2: syntax error
(standard_in) 2: syntax error
(standard_in) 2: syntax error
(standard_in) 2: syntax error
(standard_in) 2: syntax error
(standard_in) 2: syntax error
(standard_in) 2: syntax error
(standard_in) 2: syntax error
(standard_in) 2: syntax error
(standard_in) 2: syntax error
(standard_in) 2: syntax error
(standard_in) 2: syntax error
(standard_in) 2: syntax error
(standard_in) 2: syntax error
(standard_in) 2: syntax error
(standard_in) 2: syntax error
(standard_in) 2: syntax error
(standard_in) 2: syntax error
(standard_in) 2: syntax error
(standard_in) 2: syntax error
(standard_in) 2: syntax error
(standard_in) 2: syntax error
(standard_in) 2: syntax error
(standard_in) 2: syntax error
(standard_in) 2: syntax error
(standard_in) 2: syntax error
(standard_in) 2: syntax error
(standard_in) 2: syntax error
(standard_in) 2: syntax error
(standard_in) 2: syntax error
(standard_in) 2: syntax error
(standard_in) 2: syntax error
(standard_in) 2: syntax error
(standard_in) 2: syntax error
(standard_in) 2: syntax error
(standard_in) 2: syntax error
(standard_in) 2: syntax error
(standard_in) 2: syntax error
(standard_in) 2: syntax error
(standard_in) 2: syntax error
(standard_in) 2: syntax error
(standard_in) 2: syntax error
(standard_in) 2: syntax error
(standard_in) 2: syntax error
(standard_in) 2: syntax error
(standard_in) 2: syntax error
(standard_in) 2: syntax error
(standard_in) 2: syntax error
(standard_in) 2: syntax error
(standard_in) 2: syntax error
(standard_in) 2: syntax error
(standard_in) 2: syntax error
(standard_in) 2: syntax error
(standard_in) 2: syntax error
(standard_in) 2: syntax error
(standard_in) 2: syntax error
(standard_in) 2: syntax error
(standard_in) 2: syntax error
(standard_in) 2: syntax error
(standard_in) 2: syntax error
(standard_in) 2: syntax error
(standard_in) 2: syntax error
(standard_in) 2: syntax error
(standard_in) 2: syntax error
(standard_in) 2: syntax error
(standard_in) 2: syntax error
(standard_in) 2: syntax error
(standard_in) 2: syntax error
(standard_in) 2: syntax error
(standard_in) 2: syntax error
(standard_in) 2: syntax error
(standard_in) 2: syntax error
(standard_in) 2: syntax error
(standard_in) 2: syntax error
(standard_in) 2: syntax error
(standard_in) 2: syntax error
(standard_in) 2: syntax error
(standard_in) 2: syntax error
(standard_in) 2: syntax error
(standard_in) 2: syntax error
(standard_in) 2: syntax error
(standard_in) 2: syntax error
(standard_in) 2: syntax error
(standard_in) 2: syntax error
(standard_in) 2: syntax error
(standard_in) 2: syntax error
(standard_in) 2: syntax error
(standard_in) 2: syntax error
(standard_in) 2: syntax error
(standard_in) 2: syntax error
(standard_in) 2: syntax error
(standard_in) 2: syntax error
(standard_in) 2: syntax error
(standard_in) 2: syntax error
(standard_in) 2: syntax error
(standard_in) 2: syntax error
(standard_in) 2: syntax error
(standard_in) 2: syntax error
(standard_in) 2: syntax error
(standard_in) 2: syntax error
(standard_in) 2: syntax error
(standard_in) 2: syntax error
(standard_in) 2: syntax error
(standard_in) 2: syntax error
(standard_in) 2: syntax error
(standard_in) 2: syntax error
(standard_in) 2: syntax error
(standard_in) 2: syntax error
(standard_in) 2: syntax error
(standard_in) 2: syntax error
(standard_in) 2: syntax error
(standard_in) 2: syntax error
(standard_in) 2: syntax error
(standard_in) 2: syntax error
(standard_in) 2: syntax error
(standard_in) 2: syntax error
(standard_in) 2: syntax error
(standard_in) 2: syntax error
(standard_in) 2: syntax error
(standard_in) 2: syntax error
(standard_in) 2: syntax error
(standard_in) 2: syntax error
(standard_in) 2: syntax error
(standard_in) 2: syntax error
(standard_in) 2: syntax error
(standard_in) 2: syntax error
(standard_in) 2: syntax error
(standard_in) 2: syntax error
(standard_in) 2: syntax error
(standard_in) 2: syntax error
(standard_in) 2: syntax error
(standard_in) 2: syntax error
(standard_in) 2: syntax error
(standard_in) 2: syntax error
(standard_in) 2: syntax error
(standard_in) 2: syntax error
(standard_in) 2: syntax error
(standard_in) 2: syntax error
(standard_in) 2: syntax error
(standard_in) 2: syntax error
(standard_in) 2: syntax error
(standard_in) 2: syntax error
(standard_in) 2: syntax error
(standard_in) 2: syntax error
(standard_in) 2: syntax error
(standard_in) 2: syntax error
(standard_in) 2: syntax error
(standard_in) 2: syntax error
(standard_in) 2: syntax error
(standard_in) 2: syntax error
(standard_in) 2: syntax error
(standard_in) 2: syntax error
(standard_in) 2: syntax error
(standard_in) 2: syntax error
(standard_in) 2: syntax error
(standard_in) 2: syntax error
(standard_in) 2: syntax error
(standard_in) 2: syntax error
(standard_in) 2: syntax error
(standard_in) 2: syntax error
(standard_in) 2: syntax error
(standard_in) 2: syntax error
(standard_in) 2: syntax error
(standard_in) 2: syntax error
(standard_in) 2: syntax error
(standard_in) 2: syntax error
(standard_in) 2: syntax error
(standard_in) 2: syntax error
(standard_in) 2: syntax error
(standard_in) 2: syntax error
(standard_in) 2: syntax error
(standard_in) 2: syntax error
(standard_in) 2: syntax error
(standard_in) 2: syntax error
(standard_in) 2: syntax error
(standard_in) 2: syntax error
(standard_in) 2: syntax error
(standard_in) 2: syntax error
(standard_in) 2: syntax error
(standard_in) 2: syntax error
(standard_in) 2: syntax error
(standard_in) 2: syntax error
(standard_in) 2: syntax error
(standard_in) 2: syntax error
(standard_in) 2: syntax error
(standard_in) 2: syntax error
(standard_in) 2: syntax error
(standard_in) 2: syntax error
(standard_in) 2: syntax error
(standard_in) 2: syntax error
(standard_in) 2: syntax error
(standard_in) 2: syntax error
(standard_in) 2: syntax error
(standard_in) 2: syntax error
(standard_in) 2: syntax error
(standard_in) 2: syntax error
(standard_in) 2: syntax error
(standard_in) 2: syntax error
(standard_in) 2: syntax error
(standard_in) 2: syntax error
(standard_in) 2: syntax error
(standard_in) 2: syntax error
(standard_in) 2: syntax error
(standard_in) 2: syntax error
(standard_in) 2: syntax error
(standard_in) 2: syntax error
(standard_in) 2: syntax error
(standard_in) 2: syntax error
(standard_in) 2: syntax error
(standard_in) 2: syntax error
(standard_in) 2: syntax error
(standard_in) 2: syntax error
(standard_in) 2: syntax error
(standard_in) 2: syntax error
(standard_in) 2: syntax error
(standard_in) 2: syntax error
(standard_in) 2: syntax error
(standard_in) 2: syntax error
(standard_in) 2: syntax error
(standard_in) 2: syntax error
(standard_in) 2: syntax error
(standard_in) 2: syntax error
(standard_in) 2: syntax error
(standard_in) 2: syntax error
(standard_in) 2: syntax error
(standard_in) 2: syntax error
(standard_in) 2: syntax error
(standard_in) 2: syntax error
(standard_in) 2: syntax error
(standard_in) 2: syntax error
(standard_in) 2: syntax error
(standard_in) 2: syntax error
(standard_in) 2: syntax error
(standard_in) 2: syntax error
(standard_in) 2: syntax error
(standard_in) 2: syntax error
(standard_in) 2: syntax error
(standard_in) 2: syntax error
(standard_in) 2: syntax error
(standard_in) 2: syntax error
(standard_in) 2: syntax error
(standard_in) 2: syntax error
(standard_in) 2: syntax error
(standard_in) 2: syntax error
(standard_in) 2: syntax error
(standard_in) 2: syntax error
(standard_in) 2: syntax error
(standard_in) 2: syntax error
(standard_in) 2: syntax error
(standard_in) 2: syntax error
(standard_in) 2: syntax error
(standard_in) 2: syntax error
(standard_in) 2: syntax error
(standard_in) 2: syntax error
(standard_in) 2: syntax error
(standard_in) 2: syntax error
(standard_in) 2: syntax error
(standard_in) 2: syntax error
(standard_in) 2: syntax error
(standard_in) 2: syntax error
(standard_in) 2: syntax error
(standard_in) 2: syntax error
(standard_in) 2: syntax error
(standard_in) 2: syntax error
(standard_in) 2: syntax error
(standard_in) 2: syntax error
(standard_in) 2: syntax error
(standard_in) 2: syntax error
(standard_in) 2: syntax error
(standard_in) 2: syntax error
(standard_in) 2: syntax error
(standard_in) 2: syntax error
(standard_in) 2: syntax error
(standard_in) 2: syntax error
(standard_in) 2: syntax error
(standard_in) 2: syntax error
(standard_in) 2: syntax error
(standard_in) 2: syntax error
(standard_in) 2: syntax error
(standard_in) 2: syntax error
(standard_in) 2: syntax error
(standard_in) 2: syntax error
(standard_in) 2: syntax error
(standard_in) 2: syntax error
(standard_in) 2: syntax error
(standard_in) 2: syntax error
(standard_in) 2: syntax error
(standard_in) 2: syntax error
(standard_in) 2: syntax error
(standard_in) 2: syntax error
(standard_in) 2: syntax error
(standard_in) 2: syntax error
(standard_in) 2: syntax error
(standard_in) 2: syntax error
(standard_in) 2: syntax error
(standard_in) 2: syntax error
(standard_in) 2: syntax error
(standard_in) 2: syntax error
(standard_in) 2: syntax error
(standard_in) 2: syntax error
(standard_in) 2: syntax error
(standard_in) 2: syntax error
(standard_in) 2: syntax error
(standard_in) 2: syntax error
(standard_in) 2: syntax error
(standard_in) 2: syntax error
(standard_in) 2: syntax error
(standard_in) 2: syntax error
(standard_in) 2: syntax error
(standard_in) 2: syntax error
(standard_in) 2: syntax error
(standard_in) 2: syntax error
(standard_in) 2: syntax error
(standard_in) 2: syntax error
(standard_in) 2: syntax error
(standard_in) 2: syntax error
(standard_in) 2: syntax error
(standard_in) 2: syntax error
(standard_in) 2: syntax error
(standard_in) 2: syntax error
(standard_in) 2: syntax error
(standard_in) 2: syntax error
(standard_in) 2: syntax error
(standard_in) 2: syntax error
(standard_in) 2: syntax error
(standard_in) 2: syntax error
(standard_in) 2: syntax error
(standard_in) 2: syntax error
(standard_in) 2: syntax error
(standard_in) 2: syntax error
(standard_in) 2: syntax error
(standard_in) 2: syntax error
(standard_in) 2: syntax error
(standard_in) 2: syntax error
(standard_in) 2: syntax error
(standard_in) 2: syntax error
(standard_in) 2: syntax error
(standard_in) 2: syntax error
(standard_in) 2: syntax error
(standard_in) 2: syntax error
(standard_in) 2: syntax error
(standard_in) 2: syntax error
(standard_in) 2: syntax error
(standard_in) 2: syntax error
(standard_in) 2: syntax error
(standard_in) 2: syntax error
(standard_in) 2: syntax error
(standard_in) 2: syntax error
(standard_in) 2: syntax error
(standard_in) 2: syntax error
(standard_in) 2: syntax error
(standard_in) 2: syntax error
(standard_in) 2: syntax error
(standard_in) 2: syntax error
(standard_in) 2: syntax error
(standard_in) 2: syntax error
(standard_in) 2: syntax error
(standard_in) 2: syntax error
(standard_in) 2: syntax error
(standard_in) 2: syntax error
(standard_in) 2: syntax error
(standard_in) 2: syntax error
(standard_in) 2: syntax error
(standard_in) 2: syntax error
(standard_in) 2: syntax error
(standard_in) 2: syntax error
(standard_in) 2: syntax error
(standard_in) 2: syntax error
(standard_in) 2: syntax error
(standard_in) 2: syntax error
(standard_in) 2: syntax error
(standard_in) 2: syntax error
(standard_in) 2: syntax error
(standard_in) 2: syntax error
(standard_in) 2: syntax error
(standard_in) 2: syntax error
(standard_in) 2: syntax error
(standard_in) 2: syntax error
(standard_in) 2: syntax error
(standard_in) 2: syntax error
(standard_in) 2: syntax error
(standard_in) 2: syntax error
(standard_in) 2: syntax error
(standard_in) 2: syntax error
(standard_in) 2: syntax error
(standard_in) 2: syntax error
(standard_in) 2: syntax error
(standard_in) 2: syntax error
(standard_in) 2: syntax error
(standard_in) 2: syntax error
(standard_in) 2: syntax error
(standard_in) 2: syntax error
(standard_in) 2: syntax error
(standard_in) 2: syntax error
(standard_in) 2: syntax error
(standard_in) 2: syntax error
(standard_in) 2: syntax error
(standard_in) 2: syntax error
(standard_in) 2: syntax error
(standard_in) 2: syntax error
(standard_in) 2: syntax error
(standard_in) 2: syntax error
(standard_in) 2: syntax error
(standard_in) 2: syntax error
(standard_in) 2: syntax error
(standard_in) 2: syntax error
(standard_in) 2: syntax error
(standard_in) 2: syntax error
(standard_in) 2: syntax error
(standard_in) 2: syntax error
(standard_in) 2: syntax error
(standard_in) 2: syntax error
(standard_in) 2: syntax error
(standard_in) 2: syntax error
(standard_in) 2: syntax error
(standard_in) 2: syntax error
(standard_in) 2: syntax error
(standard_in) 2: syntax error
(standard_in) 2: syntax error
(standard_in) 2: syntax error
(standard_in) 2: syntax error
(standard_in) 2: syntax error
(standard_in) 2: syntax error
(standard_in) 2: syntax error
(standard_in) 2: syntax error
(standard_in) 2: syntax error
(standard_in) 2: syntax error
(standard_in) 2: syntax error
(standard_in) 2: syntax error
(standard_in) 2: syntax error
(standard_in) 2: syntax error
(standard_in) 2: syntax error
(standard_in) 2: syntax error
(standard_in) 2: syntax error
(standard_in) 2: syntax error
(standard_in) 2: syntax error
(standard_in) 2: syntax error
(standard_in) 2: syntax error
(standard_in) 2: syntax error
(standard_in) 2: syntax error
(standard_in) 2: syntax error
(standard_in) 2: syntax error
(standard_in) 2: syntax error
(standard_in) 2: syntax error
(standard_in) 2: syntax error
(standard_in) 2: syntax error
(standard_in) 2: syntax error
(standard_in) 2: syntax error
(standard_in) 2: syntax error
(standard_in) 2: syntax error
(standard_in) 2: syntax error
(standard_in) 2: syntax error
(standard_in) 2: syntax error
(standard_in) 2: syntax error
(standard_in) 2: syntax error
(standard_in) 2: syntax error
(standard_in) 2: syntax error
(standard_in) 2: syntax error
(standard_in) 2: syntax error
(standard_in) 2: syntax error
(standard_in) 2: syntax error
(standard_in) 2: syntax error
(standard_in) 2: syntax error
(standard_in) 2: syntax error
(standard_in) 2: syntax error
(standard_in) 2: syntax error
(standard_in) 2: syntax error
(standard_in) 2: syntax error
(standard_in) 2: syntax error
(standard_in) 2: syntax error
(standard_in) 2: syntax error
(standard_in) 2: syntax error
(standard_in) 2: syntax error
(standard_in) 2: syntax error
(standard_in) 2: syntax error
(standard_in) 2: syntax error
(standard_in) 2: syntax error
(standard_in) 2: syntax error
(standard_in) 2: syntax error
(standard_in) 2: syntax error
(standard_in) 2: syntax error
(standard_in) 2: syntax error
(standard_in) 2: syntax error
(standard_in) 2: syntax error
(standard_in) 2: syntax error
(standard_in) 2: syntax error
(standard_in) 2: syntax error
(standard_in) 2: syntax error
(standard_in) 2: syntax error
(standard_in) 2: syntax error
(standard_in) 2: syntax error
(standard_in) 2: syntax error
(standard_in) 2: syntax error
(standard_in) 2: syntax error
(standard_in) 2: syntax error
(standard_in) 2: syntax error
(standard_in) 2: syntax error
(standard_in) 2: syntax error
(standard_in) 2: syntax error
(standard_in) 2: syntax error
(standard_in) 2: syntax error
(standard_in) 2: syntax error
(standard_in) 2: syntax error
(standard_in) 2: syntax error
(standard_in) 2: syntax error
(standard_in) 2: syntax error
(standard_in) 2: syntax error
(standard_in) 2: syntax error
(standard_in) 2: syntax error
(standard_in) 2: syntax error
(standard_in) 2: syntax error
(standard_in) 2: syntax error
(standard_in) 2: syntax error
(standard_in) 2: syntax error
(standard_in) 2: syntax error
(standard_in) 2: syntax error
(standard_in) 2: syntax error
(standard_in) 2: syntax error
(standard_in) 2: syntax error
(standard_in) 2: syntax error
(standard_in) 2: syntax error
(standard_in) 2: syntax error
(standard_in) 2: syntax error
(standard_in) 2: syntax error
(standard_in) 2: syntax error
(standard_in) 2: syntax error
(standard_in) 2: syntax error
(standard_in) 2: syntax error
(standard_in) 2: syntax error
(standard_in) 2: syntax error
(standard_in) 2: syntax error
(standard_in) 2: syntax error
(standard_in) 2: syntax error
(standard_in) 2: syntax error
(standard_in) 2: syntax error
(standard_in) 2: syntax error
(standard_in) 2: syntax error
(standard_in) 2: syntax error
(standard_in) 2: syntax error
(standard_in) 2: syntax error
(standard_in) 2: syntax error
(standard_in) 2: syntax error
(standard_in) 2: syntax error
(standard_in) 2: syntax error
(standard_in) 2: syntax error
(standard_in) 2: syntax error
(standard_in) 2: syntax error
(standard_in) 2: syntax error
(standard_in) 2: syntax error
(standard_in) 2: syntax error
(standard_in) 2: syntax error
(standard_in) 2: syntax error
(standard_in) 2: syntax error
(standard_in) 2: syntax error
(standard_in) 2: syntax error
(standard_in) 2: syntax error
(standard_in) 2: syntax error
(standard_in) 2: syntax error
(standard_in) 2: syntax error
(standard_in) 2: syntax error
(standard_in) 2: syntax error
(standard_in) 2: syntax error
(standard_in) 2: syntax error
(standard_in) 2: syntax error
(standard_in) 2: syntax error
(standard_in) 2: syntax error
(standard_in) 2: syntax error
(standard_in) 2: syntax error
(standard_in) 2: syntax error
(standard_in) 2: syntax error
(standard_in) 2: syntax error
(standard_in) 2: syntax error
(standard_in) 2: syntax error
(standard_in) 2: syntax error
(standard_in) 2: syntax error
(standard_in) 2: syntax error
(standard_in) 2: syntax error
(standard_in) 2: syntax error
(standard_in) 2: syntax error
(standard_in) 2: syntax error
(standard_in) 2: syntax error
(standard_in) 2: syntax error
(standard_in) 2: syntax error
(standard_in) 2: syntax error
(standard_in) 2: syntax error
(standard_in) 2: syntax error
(standard_in) 2: syntax error
(standard_in) 2: syntax error
(standard_in) 2: syntax error
(standard_in) 2: syntax error
(standard_in) 2: syntax error
(standard_in) 2: syntax error
(standard_in) 2: syntax error
(standard_in) 2: syntax error
(standard_in) 2: syntax error
(standard_in) 2: syntax error
(standard_in) 2: syntax error
(standard_in) 2: syntax error
(standard_in) 2: syntax error
(standard_in) 2: syntax error
(standard_in) 2: syntax error
(standard_in) 2: syntax error
(standard_in) 2: syntax error
(standard_in) 2: syntax error
(standard_in) 2: syntax error
(standard_in) 2: syntax error
(standard_in) 2: syntax error
(standard_in) 2: syntax error
(standard_in) 2: syntax error
(standard_in) 2: syntax error
(standard_in) 2: syntax error
(standard_in) 2: syntax error
(standard_in) 2: syntax error
(standard_in) 2: syntax error
(standard_in) 2: syntax error
(standard_in) 2: syntax error
(standard_in) 2: syntax error
(standard_in) 2: syntax error
(standard_in) 2: syntax error
(standard_in) 2: syntax error
(standard_in) 2: syntax error
(standard_in) 2: syntax error
(standard_in) 2: syntax error
(standard_in) 2: syntax error
(standard_in) 2: syntax error
(standard_in) 2: syntax error
(standard_in) 2: syntax error
(standard_in) 2: syntax error
(standard_in) 2: syntax error
(standard_in) 2: syntax error
(standard_in) 2: syntax error
(standard_in) 2: syntax error
(standard_in) 2: syntax error
(standard_in) 2: syntax error
(standard_in) 2: syntax error
(standard_in) 2: syntax error
(standard_in) 2: syntax error
(standard_in) 2: syntax error
(standard_in) 2: syntax error
(standard_in) 2: syntax error
(standard_in) 2: syntax error
(standard_in) 2: syntax error
(standard_in) 2: syntax error
(standard_in) 2: syntax error
(standard_in) 2: syntax error
(standard_in) 2: syntax error
(standard_in) 2: syntax error
(standard_in) 2: syntax error
(standard_in) 2: syntax error
(standard_in) 2: syntax error
(standard_in) 2: syntax error
(standard_in) 2: syntax error
(standard_in) 2: syntax error
(standard_in) 2: syntax error
(standard_in) 2: syntax error
(standard_in) 2: syntax error
(standard_in) 2: syntax error
(standard_in) 2: syntax error
(standard_in) 2: syntax error
(standard_in) 2: syntax error
(standard_in) 2: syntax error
(standard_in) 2: syntax error
(standard_in) 2: syntax error
(standard_in) 2: syntax error
(standard_in) 2: syntax error
(standard_in) 2: syntax error
(standard_in) 2: syntax error
(standard_in) 2: syntax error
(standard_in) 2: syntax error
(standard_in) 2: syntax error
(standard_in) 2: syntax error
(standard_in) 2: syntax error
(standard_in) 2: syntax error
(standard_in) 2: syntax error
(standard_in) 2: syntax error
(standard_in) 2: syntax error
(standard_in) 2: syntax error
(standard_in) 2: syntax error
(standard_in) 2: syntax error
(standard_in) 2: syntax error
(standard_in) 2: syntax error
(standard_in) 2: syntax error
(standard_in) 2: syntax error
(standard_in) 2: syntax error
(standard_in) 2: syntax error
(standard_in) 2: syntax error
(standard_in) 2: syntax error
(standard_in) 2: syntax error
(standard_in) 2: syntax error
(standard_in) 2: syntax error
(standard_in) 2: syntax error
(standard_in) 2: syntax error
(standard_in) 2: syntax error
(standard_in) 2: syntax error
(standard_in) 2: syntax error
(standard_in) 2: syntax error
(standard_in) 2: syntax error
(standard_in) 2: syntax error
(standard_in) 2: syntax error
(standard_in) 2: syntax error
(standard_in) 2: syntax error
(standard_in) 2: syntax error
(standard_in) 2: syntax error
(standard_in) 2: syntax error
(standard_in) 2: syntax error
(standard_in) 2: syntax error
(standard_in) 2: syntax error
(standard_in) 2: syntax error
(standard_in) 2: syntax error
(standard_in) 2: syntax error
(standard_in) 2: syntax error
(standard_in) 2: syntax error
(standard_in) 2: syntax error
(standard_in) 2: syntax error
(standard_in) 2: syntax error
(standard_in) 2: syntax error
(standard_in) 2: syntax error
(standard_in) 2: syntax error
(standard_in) 2: syntax error
(standard_in) 2: syntax error
(standard_in) 2: syntax error
(standard_in) 2: syntax error
(standard_in) 2: syntax error
(standard_in) 2: syntax error
(standard_in) 2: syntax error
(standard_in) 2: syntax error
(standard_in) 2: syntax error
(standard_in) 2: syntax error
(standard_in) 2: syntax error
(standard_in) 2: syntax error
(standard_in) 2: syntax error
(standard_in) 2: syntax error
(standard_in) 2: syntax error
(standard_in) 2: syntax error
(standard_in) 2: syntax error
(standard_in) 2: syntax error
(standard_in) 2: syntax error
(standard_in) 2: syntax error
(standard_in) 2: syntax error
(standard_in) 2: syntax error
(standard_in) 2: syntax error
(standard_in) 2: syntax error
(standard_in) 2: syntax error
(standard_in) 2: syntax error
(standard_in) 2: syntax error
(standard_in) 2: syntax error
(standard_in) 2: syntax error
(standard_in) 2: syntax error
(standard_in) 2: syntax error
(standard_in) 2: syntax error
(standard_in) 2: syntax error
(standard_in) 2: syntax error
(standard_in) 2: syntax error
(standard_in) 2: syntax error
(standard_in) 2: syntax error
(standard_in) 2: syntax error
(standard_in) 2: syntax error
(standard_in) 2: syntax error
(standard_in) 2: syntax error
(standard_in) 2: syntax error
(standard_in) 2: syntax error
(standard_in) 2: syntax error
(standard_in) 2: syntax error
(standard_in) 2: syntax error
(standard_in) 2: syntax error
(standard_in) 2: syntax error
(standard_in) 2: syntax error
(standard_in) 2: syntax error
(standard_in) 2: syntax error
(standard_in) 2: syntax error
(standard_in) 2: syntax error
(standard_in) 2: syntax error
(standard_in) 2: syntax error
(standard_in) 2: syntax error
(standard_in) 2: syntax error
(standard_in) 2: syntax error
(standard_in) 2: syntax error
(standard_in) 2: syntax error
(standard_in) 2: syntax error
(standard_in) 2: syntax error
(standard_in) 2: syntax error
(standard_in) 2: syntax error
(standard_in) 2: syntax error
(standard_in) 2: syntax error
(standard_in) 2: syntax error
(standard_in) 2: syntax error
(standard_in) 2: syntax error
(standard_in) 2: syntax error
(standard_in) 2: syntax error
(standard_in) 2: syntax error
(standard_in) 2: syntax error
(standard_in) 2: syntax error
(standard_in) 2: syntax error
(standard_in) 2: syntax error
(standard_in) 2: syntax error
(standard_in) 2: syntax error
(standard_in) 2: syntax error
(standard_in) 2: syntax error
(standard_in) 2: syntax error
(standard_in) 2: syntax error
(standard_in) 2: syntax error
(standard_in) 2: syntax error
(standard_in) 2: syntax error
(standard_in) 2: syntax error
(standard_in) 2: syntax error
(standard_in) 2: syntax error
(standard_in) 2: syntax error
(standard_in) 2: syntax error
(standard_in) 2: syntax error
(standard_in) 2: syntax error
(standard_in) 2: syntax error
(standard_in) 2: syntax error
(standard_in) 2: syntax error
(standard_in) 2: syntax error
(standard_in) 2: syntax error
(standard_in) 2: syntax error
(standard_in) 2: syntax error
(standard_in) 2: syntax error
(standard_in) 2: syntax error
(standard_in) 2: syntax error
(standard_in) 2: syntax error
(standard_in) 2: syntax error
(standard_in) 2: syntax error
(standard_in) 2: syntax error
(standard_in) 2: syntax error
(standard_in) 2: syntax error
(standard_in) 2: syntax error
(standard_in) 2: syntax error
(standard_in) 2: syntax error
(standard_in) 2: syntax error
(standard_in) 2: syntax error
(standard_in) 2: syntax error
(standard_in) 2: syntax error
(standard_in) 2: syntax error
(standard_in) 2: syntax error
(standard_in) 2: syntax error
(standard_in) 2: syntax error
(standard_in) 2: syntax error
(standard_in) 2: syntax error
(standard_in) 2: syntax error
(standard_in) 2: syntax error
(standard_in) 2: syntax error
(standard_in) 2: syntax error
(standard_in) 2: syntax error
(standard_in) 2: syntax error
(standard_in) 2: syntax error
(standard_in) 2: syntax error
(standard_in) 2: syntax error
(standard_in) 2: syntax error
(standard_in) 2: syntax error
(standard_in) 2: syntax error
(standard_in) 2: syntax error
(standard_in) 2: syntax error
(standard_in) 2: syntax error
(standard_in) 2: syntax error
(standard_in) 2: syntax error
(standard_in) 2: syntax error
(standard_in) 2: syntax error
(standard_in) 2: syntax error
(standard_in) 2: syntax error
(standard_in) 2: syntax error
(standard_in) 2: syntax error
(standard_in) 2: syntax error
(standard_in) 2: syntax error
(standard_in) 2: syntax error
(standard_in) 2: syntax error
(standard_in) 2: syntax error
(standard_in) 2: syntax error
(standard_in) 2: syntax error
(standard_in) 2: syntax error
(standard_in) 2: syntax error
(standard_in) 2: syntax error
(standard_in) 2: syntax error
(standard_in) 2: syntax error
(standard_in) 2: syntax error
(standard_in) 2: syntax error
(standard_in) 2: syntax error
(standard_in) 2: syntax error
(standard_in) 2: syntax error
(standard_in) 2: syntax error
(standard_in) 2: syntax error
(standard_in) 2: syntax error
(standard_in) 2: syntax error
(standard_in) 2: syntax error
(standard_in) 2: syntax error
(standard_in) 2: syntax error
(standard_in) 2: syntax error
(standard_in) 2: syntax error
(standard_in) 2: syntax error
(standard_in) 2: syntax error
(standard_in) 2: syntax error
(standard_in) 2: syntax error
(standard_in) 2: syntax error
(standard_in) 2: syntax error
(standard_in) 2: syntax error
(standard_in) 2: syntax error
(standard_in) 2: syntax error
(standard_in) 2: syntax error
(standard_in) 2: syntax error
(standard_in) 2: syntax error
(standard_in) 2: syntax error
(standard_in) 2: syntax error
(standard_in) 2: syntax error
(standard_in) 2: syntax error
(standard_in) 2: syntax error
(standard_in) 2: syntax error
(standard_in) 2: syntax error
(standard_in) 2: syntax error
(standard_in) 2: syntax error
(standard_in) 2: syntax error
(standard_in) 2: syntax error
(standard_in) 2: syntax error
(standard_in) 2: syntax error
(standard_in) 2: syntax error
(standard_in) 2: syntax error
(standard_in) 2: syntax error
(standard_in) 2: syntax error
(standard_in) 2: syntax error
(standard_in) 2: syntax error
(standard_in) 2: syntax error
(standard_in) 2: syntax error
(standard_in) 2: syntax error
(standard_in) 2: syntax error
(standard_in) 2: syntax error
(standard_in) 2: syntax error
(standard_in) 2: syntax error
(standard_in) 2: syntax error
(standard_in) 2: syntax error
(standard_in) 2: syntax error
(standard_in) 2: syntax error
(standard_in) 2: syntax error
(standard_in) 2: syntax error
(standard_in) 2: syntax error
(standard_in) 2: syntax error
(standard_in) 2: syntax error
(standard_in) 2: syntax error
(standard_in) 2: syntax error
(standard_in) 2: syntax error
(standard_in) 2: syntax error
(standard_in) 2: syntax error
(standard_in) 2: syntax error
(standard_in) 2: syntax error
(standard_in) 2: syntax error
(standard_in) 2: syntax error
(standard_in) 2: syntax error
(standard_in) 2: syntax error
(standard_in) 2: syntax error
(standard_in) 2: syntax error
(standard_in) 2: syntax error
(standard_in) 2: syntax error
(standard_in) 2: syntax error
(standard_in) 2: syntax error
(standard_in) 2: syntax error
(standard_in) 2: syntax error
(standard_in) 2: syntax error
(standard_in) 2: syntax error
(standard_in) 2: syntax error
(standard_in) 2: syntax error
(standard_in) 2: syntax error
(standard_in) 2: syntax error
(standard_in) 2: syntax error
(standard_in) 2: syntax error
(standard_in) 2: syntax error
(standard_in) 2: syntax error
(standard_in) 2: syntax error
(standard_in) 2: syntax error
(standard_in) 2: syntax error
(standard_in) 2: syntax error
(standard_in) 2: syntax error
(standard_in) 2: syntax error
(standard_in) 2: syntax error
(standard_in) 2: syntax error
(standard_in) 2: syntax error
(standard_in) 2: syntax error
(standard_in) 2: syntax error
(standard_in) 2: syntax error
(standard_in) 2: syntax error
(standard_in) 2: syntax error
(standard_in) 2: syntax error
(standard_in) 2: syntax error
(standard_in) 2: syntax error
(standard_in) 2: syntax error
(standard_in) 2: syntax error
(standard_in) 2: syntax error
(standard_in) 2: syntax error
(standard_in) 2: syntax error
(standard_in) 2: syntax error
(standard_in) 2: syntax error
(standard_in) 2: syntax error
(standard_in) 2: syntax error
(standard_in) 2: syntax error
(standard_in) 2: syntax error
(standard_in) 2: syntax error
(standard_in) 2: syntax error
(standard_in) 2: syntax error
(standard_in) 2: syntax error
(standard_in) 2: syntax error
(standard_in) 2: syntax error
(standard_in) 2: syntax error
(standard_in) 2: syntax error
(standard_in) 2: syntax error
(standard_in) 2: syntax error
(standard_in) 2: syntax error
(standard_in) 2: syntax error
(standard_in) 2: syntax error
(standard_in) 2: syntax error
(standard_in) 2: syntax error
(standard_in) 2: syntax error
(standard_in) 2: syntax error
(standard_in) 2: syntax error
(standard_in) 2: syntax error
(standard_in) 2: syntax error
(standard_in) 2: syntax error
(standard_in) 2: syntax error
(standard_in) 2: syntax error
(standard_in) 2: syntax error
(standard_in) 2: syntax error
(standard_in) 2: syntax error
(standard_in) 2: syntax error
(standard_in) 2: syntax error
(standard_in) 2: syntax error
(standard_in) 2: syntax error
(standard_in) 2: syntax error
(standard_in) 2: syntax error
(standard_in) 2: syntax error
(standard_in) 2: syntax error
(standard_in) 2: syntax error
(standard_in) 2: syntax error
(standard_in) 2: syntax error
(standard_in) 2: syntax error
(standard_in) 2: syntax error
(standard_in) 2: syntax error
(standard_in) 2: syntax error
(standard_in) 2: syntax error
(standard_in) 2: syntax error
(standard_in) 2: syntax error
(standard_in) 2: syntax error
(standard_in) 2: syntax error
(standard_in) 2: syntax error
(standard_in) 2: syntax error
(standard_in) 2: syntax error
(standard_in) 2: syntax error
(standard_in) 2: syntax error
(standard_in) 2: syntax error
(standard_in) 2: syntax error
(standard_in) 2: syntax error
(standard_in) 2: syntax error
(standard_in) 2: syntax error
(standard_in) 2: syntax error
(standard_in) 2: syntax error
(standard_in) 2: syntax error
(standard_in) 2: syntax error
(standard_in) 2: syntax error
(standard_in) 2: syntax error
(standard_in) 2: syntax error
(standard_in) 2: syntax error
(standard_in) 2: syntax error
(standard_in) 2: syntax error
(standard_in) 2: syntax error
(standard_in) 2: syntax error
(standard_in) 2: syntax error
(standard_in) 2: syntax error
(standard_in) 2: syntax error
(standard_in) 2: syntax error
(standard_in) 2: syntax error
(standard_in) 2: syntax error
(standard_in) 2: syntax error
(standard_in) 2: syntax error
(standard_in) 2: syntax error
(standard_in) 2: syntax error
(standard_in) 2: syntax error
(standard_in) 2: syntax error
(standard_in) 2: syntax error
(standard_in) 2: syntax error
(standard_in) 2: syntax error
(standard_in) 2: syntax error
(standard_in) 2: syntax error
(standard_in) 2: syntax error
(standard_in) 2: syntax error
(standard_in) 2: syntax error
(standard_in) 2: syntax error
(standard_in) 2: syntax error
(standard_in) 2: syntax error
(standard_in) 2: syntax error
(standard_in) 2: syntax error
(standard_in) 2: syntax error
(standard_in) 2: syntax error
(standard_in) 2: syntax error
(standard_in) 2: syntax error
(standard_in) 2: syntax error
(standard_in) 2: syntax error
(standard_in) 2: syntax error
(standard_in) 2: syntax error
(standard_in) 2: syntax error
(standard_in) 2: syntax error
(standard_in) 2: syntax error
(standard_in) 2: syntax error
(standard_in) 2: syntax error
(standard_in) 2: syntax error
(standard_in) 2: syntax error
(standard_in) 2: syntax error
(standard_in) 2: syntax error
(standard_in) 2: syntax error
(standard_in) 2: syntax error
(standard_in) 2: syntax error
(standard_in) 2: syntax error
(standard_in) 2: syntax error
(standard_in) 2: syntax error
(standard_in) 2: syntax error
(standard_in) 2: syntax error
(standard_in) 2: syntax error
(standard_in) 2: syntax error
(standard_in) 2: syntax error
(standard_in) 2: syntax error
(standard_in) 2: syntax error
(standard_in) 2: syntax error
(standard_in) 2: syntax error
(standard_in) 2: syntax error
(standard_in) 2: syntax error
(standard_in) 2: syntax error
(standard_in) 2: syntax error
(standard_in) 2: syntax error
(standard_in) 2: syntax error
(standard_in) 2: syntax error
(standard_in) 2: syntax error
(standard_in) 2: syntax error
(standard_in) 2: syntax error
(standard_in) 2: syntax error
(standard_in) 2: syntax error
(standard_in) 2: syntax error
(standard_in) 2: syntax error
(standard_in) 2: syntax error
(standard_in) 2: syntax error
(standard_in) 2: syntax error
(standard_in) 2: syntax error
(standard_in) 2: syntax error
(standard_in) 2: syntax error
(standard_in) 2: syntax error
(standard_in) 2: syntax error
(standard_in) 2: syntax error
(standard_in) 2: syntax error
(standard_in) 2: syntax error
(standard_in) 2: syntax error
(standard_in) 2: syntax error
(standard_in) 2: syntax error
(standard_in) 2: syntax error
(standard_in) 2: syntax error
(standard_in) 2: syntax error
(standard_in) 2: syntax error
(standard_in) 2: syntax error
(standard_in) 2: syntax error
(standard_in) 2: syntax error
(standard_in) 2: syntax error
(standard_in) 2: syntax error
(standard_in) 2: syntax error
(standard_in) 2: syntax error
(standard_in) 2: syntax error
(standard_in) 2: syntax error
(standard_in) 2: syntax error
(standard_in) 2: syntax error
(standard_in) 2: syntax error
(standard_in) 2: syntax error
(standard_in) 2: syntax error
(standard_in) 2: syntax error
(standard_in) 2: syntax error
(standard_in) 2: syntax error
(standard_in) 2: syntax error
(standard_in) 2: syntax error
(standard_in) 2: syntax error
(standard_in) 2: syntax error
(standard_in) 2: syntax error
(standard_in) 2: syntax error
(standard_in) 2: syntax error
(standard_in) 2: syntax error
(standard_in) 2: syntax error
(standard_in) 2: syntax error
(standard_in) 2: syntax error
(standard_in) 2: syntax error
(standard_in) 2: syntax error
(standard_in) 2: syntax error
(standard_in) 2: syntax error
(standard_in) 2: syntax error
(standard_in) 2: syntax error
(standard_in) 2: syntax error
(standard_in) 2: syntax error
(standard_in) 2: syntax error
(standard_in) 2: syntax error
(standard_in) 2: syntax error
(standard_in) 2: syntax error
(standard_in) 2: syntax error
(standard_in) 2: syntax error
(standard_in) 2: syntax error
(standard_in) 2: syntax error
(standard_in) 2: syntax error
(standard_in) 2: syntax error
(standard_in) 2: syntax error
(standard_in) 2: syntax error
(standard_in) 2: syntax error
(standard_in) 2: syntax error
(standard_in) 2: syntax error
(standard_in) 2: syntax error
(standard_in) 2: syntax error
(standard_in) 2: syntax error
(standard_in) 2: syntax error
(standard_in) 2: syntax error
(standard_in) 2: syntax error
(standard_in) 2: syntax error
(standard_in) 2: syntax error
(standard_in) 2: syntax error
(standard_in) 2: syntax error
(standard_in) 2: syntax error
(standard_in) 2: syntax error
(standard_in) 2: syntax error
(standard_in) 2: syntax error
(standard_in) 2: syntax error
(standard_in) 2: syntax error
(standard_in) 2: syntax error
(standard_in) 2: syntax error
(standard_in) 2: syntax error
(standard_in) 2: syntax error
(standard_in) 2: syntax error
(standard_in) 2: syntax error
(standard_in) 2: syntax error
(standard_in) 2: syntax error
(standard_in) 2: syntax error
(standard_in) 2: syntax error
(standard_in) 2: syntax error
(standard_in) 2: syntax error
(standard_in) 2: syntax error
(standard_in) 2: syntax error
(standard_in) 2: syntax error
(standard_in) 2: syntax error
(standard_in) 2: syntax error
(standard_in) 2: syntax error
(standard_in) 2: syntax error
(standard_in) 2: syntax error
(standard_in) 2: syntax error
(standard_in) 2: syntax error
(standard_in) 2: syntax error
(standard_in) 2: syntax error
(standard_in) 2: syntax error
(standard_in) 2: syntax error
(standard_in) 2: syntax error
(standard_in) 2: syntax error
(standard_in) 2: syntax error
(standard_in) 2: syntax error
(standard_in) 2: syntax error
(standard_in) 2: syntax error
(standard_in) 2: syntax error
(standard_in) 2: syntax error
(standard_in) 2: syntax error
(standard_in) 2: syntax error
(standard_in) 2: syntax error
(standard_in) 2: syntax error
(standard_in) 2: syntax error
(standard_in) 2: syntax error
(standard_in) 2: syntax error
(standard_in) 2: syntax error
(standard_in) 2: syntax error
(standard_in) 2: syntax error
(standard_in) 2: syntax error
(standard_in) 2: syntax error
(standard_in) 2: syntax error
(standard_in) 2: syntax error
(standard_in) 2: syntax error
(standard_in) 2: syntax error
(standard_in) 2: syntax error
(standard_in) 2: syntax error
(standard_in) 2: syntax error
(standard_in) 2: syntax error
(standard_in) 2: syntax error
(standard_in) 2: syntax error
(standard_in) 2: syntax error
(standard_in) 2: syntax error
(standard_in) 2: syntax error
(standard_in) 2: syntax error
(standard_in) 2: syntax error
(standard_in) 2: syntax error
(standard_in) 2: syntax error
(standard_in) 2: syntax error
(standard_in) 2: syntax error
(standard_in) 2: syntax error
(standard_in) 2: syntax error
(standard_in) 2: syntax error
(standard_in) 2: syntax error
(standard_in) 2: syntax error
(standard_in) 2: syntax error
(standard_in) 2: syntax error
(standard_in) 2: syntax error
(standard_in) 2: syntax error
(standard_in) 2: syntax error
(standard_in) 2: syntax error
(standard_in) 2: syntax error
(standard_in) 2: syntax error
(standard_in) 2: syntax error
(standard_in) 2: syntax error
(standard_in) 2: syntax error
(standard_in) 2: syntax error
(standard_in) 2: syntax error
(standard_in) 2: syntax error
(standard_in) 2: syntax error
(standard_in) 2: syntax error
(standard_in) 2: syntax error
(standard_in) 2: syntax error
(standard_in) 2: syntax error
(standard_in) 2: syntax error
(standard_in) 2: syntax error
(standard_in) 2: syntax error
(standard_in) 2: syntax error
(standard_in) 2: syntax error
(standard_in) 2: syntax error
(standard_in) 2: syntax error
(standard_in) 2: syntax error
(standard_in) 2: syntax error
(standard_in) 2: syntax error
(standard_in) 2: syntax error
(standard_in) 2: syntax error
(standard_in) 2: syntax error
(standard_in) 2: syntax error
(standard_in) 2: syntax error
(standard_in) 2: syntax error
(standard_in) 2: syntax error
(standard_in) 2: syntax error
(standard_in) 2: syntax error
(standard_in) 2: syntax error
(standard_in) 2: syntax error
(standard_in) 2: syntax error
(standard_in) 2: syntax error
(standard_in) 2: syntax error
(standard_in) 2: syntax error
(standard_in) 2: syntax error
(standard_in) 2: syntax error
(standard_in) 2: syntax error
(standard_in) 2: syntax error
(standard_in) 2: syntax error
(standard_in) 2: syntax error
(standard_in) 2: syntax error
(standard_in) 2: syntax error
(standard_in) 2: syntax error
(standard_in) 2: syntax error
(standard_in) 2: syntax error
(standard_in) 2: syntax error
(standard_in) 2: syntax error
(standard_in) 2: syntax error
(standard_in) 2: syntax error
(standard_in) 2: syntax error
(standard_in) 2: syntax error
(standard_in) 2: syntax error
(standard_in) 2: syntax error
(standard_in) 2: syntax error
(standard_in) 2: syntax error
(standard_in) 2: syntax error
(standard_in) 2: syntax error
(standard_in) 2: syntax error
(standard_in) 2: syntax error
(standard_in) 2: syntax error
(standard_in) 2: syntax error
(standard_in) 2: syntax error
(standard_in) 2: syntax error
(standard_in) 2: syntax error
(standard_in) 2: syntax error
(standard_in) 2: syntax error
(standard_in) 2: syntax error
(standard_in) 2: syntax error
(standard_in) 2: syntax error
(standard_in) 2: syntax error
(standard_in) 2: syntax error
(standard_in) 2: syntax error
(standard_in) 2: syntax error
(standard_in) 2: syntax error
(standard_in) 2: syntax error
(standard_in) 2: syntax error
(standard_in) 2: syntax error
(standard_in) 2: syntax error
(standard_in) 2: syntax error
(standard_in) 2: syntax error
(standard_in) 2: syntax error
(standard_in) 2: syntax error
(standard_in) 2: syntax error
(standard_in) 2: syntax error
(standard_in) 2: syntax error
(standard_in) 2: syntax error
(standard_in) 2: syntax error
(standard_in) 2: syntax error
(standard_in) 2: syntax error
(standard_in) 2: syntax error
(standard_in) 2: syntax error
(standard_in) 2: syntax error
(standard_in) 2: syntax error
(standard_in) 2: syntax error
(standard_in) 2: syntax error
(standard_in) 2: syntax error
(standard_in) 2: syntax error
(standard_in) 2: syntax error
(standard_in) 2: syntax error
(standard_in) 2: syntax error
(standard_in) 2: syntax error
(standard_in) 2: syntax error
(standard_in) 2: syntax error
(standard_in) 2: syntax error
(standard_in) 2: syntax error
(standard_in) 2: syntax error
(standard_in) 2: syntax error
(standard_in) 2: syntax error
(standard_in) 2: syntax error
(standard_in) 2: syntax error
(standard_in) 2: syntax error
(standard_in) 2: syntax error
(standard_in) 2: syntax error
(standard_in) 2: syntax error
(standard_in) 2: syntax error
(standard_in) 2: syntax error
(standard_in) 2: syntax error
(standard_in) 2: syntax error
(standard_in) 2: syntax error
(standard_in) 2: syntax error
(standard_in) 2: syntax error
(standard_in) 2: syntax error
(standard_in) 2: syntax error
(standard_in) 2: syntax error
(standard_in) 2: syntax error
(standard_in) 2: syntax error
(standard_in) 2: syntax error
(standard_in) 2: syntax error
(standard_in) 2: syntax error
(standard_in) 2: syntax error
(standard_in) 2: syntax error
(standard_in) 2: syntax error
(standard_in) 2: syntax error
(standard_in) 2: syntax error
(standard_in) 2: syntax error
(standard_in) 2: syntax error
(standard_in) 2: syntax error
(standard_in) 2: syntax error
(standard_in) 2: syntax error
(standard_in) 2: syntax error
(standard_in) 2: syntax error
(standard_in) 2: syntax error
(standard_in) 2: syntax error
(standard_in) 2: syntax error
(standard_in) 2: syntax error
(standard_in) 2: syntax error
(standard_in) 2: syntax error
(standard_in) 2: syntax error
(standard_in) 2: syntax error
(standard_in) 2: syntax error
(standard_in) 2: syntax error
(standard_in) 2: syntax error
(standard_in) 2: syntax error
(standard_in) 2: syntax error
(standard_in) 2: syntax error
(standard_in) 2: syntax error
(standard_in) 2: syntax error
(standard_in) 2: syntax error
(standard_in) 2: syntax error
(standard_in) 2: syntax error
(standard_in) 2: syntax error
(standard_in) 2: syntax error
(standard_in) 2: syntax error
(standard_in) 2: syntax error
(standard_in) 2: syntax error
(standard_in) 2: syntax error
(standard_in) 2: syntax error
(standard_in) 2: syntax error
(standard_in) 2: syntax error
(standard_in) 2: syntax error
(standard_in) 2: syntax error
(standard_in) 2: syntax error
(standard_in) 2: syntax error
(standard_in) 2: syntax error
(standard_in) 2: syntax error
(standard_in) 2: syntax error
(standard_in) 2: syntax error
(standard_in) 2: syntax error
(standard_in) 2: syntax error
(standard_in) 2: syntax error
(standard_in) 2: syntax error
(standard_in) 2: syntax error
(standard_in) 2: syntax error
(standard_in) 2: syntax error
(standard_in) 2: syntax error
(standard_in) 2: syntax error
(standard_in) 2: syntax error
(standard_in) 2: syntax error
(standard_in) 2: syntax error
(standard_in) 2: syntax error
(standard_in) 2: syntax error
(standard_in) 2: syntax error
(standard_in) 2: syntax error
(standard_in) 2: syntax error
(standard_in) 2: syntax error
(standard_in) 2: syntax error
(standard_in) 2: syntax error
(standard_in) 2: syntax error
(standard_in) 2: syntax error
(standard_in) 2: syntax error
(standard_in) 2: syntax error
(standard_in) 2: syntax error
(standard_in) 2: syntax error
(standard_in) 2: syntax error
(standard_in) 2: syntax error
(standard_in) 2: syntax error
(standard_in) 2: syntax error
(standard_in) 2: syntax error
(standard_in) 2: syntax error
(standard_in) 2: syntax error
(standard_in) 2: syntax error
(standard_in) 2: syntax error
(standard_in) 2: syntax error
(standard_in) 2: syntax error
(standard_in) 2: syntax error
(standard_in) 2: syntax error
(standard_in) 2: syntax error
(standard_in) 2: syntax error
(standard_in) 2: syntax error
(standard_in) 2: syntax error
(standard_in) 2: syntax error
(standard_in) 2: syntax error
(standard_in) 2: syntax error
(standard_in) 2: syntax error
(standard_in) 2: syntax error
(standard_in) 2: syntax error
(standard_in) 2: syntax error
(standard_in) 2: syntax error
(standard_in) 2: syntax error
(standard_in) 2: syntax error
(standard_in) 2: syntax error
(standard_in) 2: syntax error
(standard_in) 2: syntax error
(standard_in) 2: syntax error
(standard_in) 2: syntax error
(standard_in) 2: syntax error
(standard_in) 2: syntax error
(standard_in) 2: syntax error
(standard_in) 2: syntax error
(standard_in) 2: syntax error
(standard_in) 2: syntax error
(standard_in) 2: syntax error
(standard_in) 2: syntax error
(standard_in) 2: syntax error
(standard_in) 2: syntax error
(standard_in) 2: syntax error
(standard_in) 2: syntax error
(standard_in) 2: syntax error
(standard_in) 2: syntax error
(standard_in) 2: syntax error
(standard_in) 2: syntax error
(standard_in) 2: syntax error
(standard_in) 2: syntax error
(standard_in) 2: syntax error
[...]
(standard_in) 2: syntax error
(standard_in) 2: syntax error
(standard_in) 2: syntax error
(standard_in) 2: syntax error
(standard_in) 2: syntax error
(standard_in) 2: syntax error
(standard_in) 2: syntax error
(standard_in) 2: syntax error
(standard_in) 2: syntax error
(standard_in) 2: syntax error
(standard_in) 2: syntax error
(standard_in) 2: syntax error
(standard_in) 2: syntax error
(standard_in) 2: syntax error
(standard_in) 2: syntax error
(standard_in) 2: syntax error
(standard_in) 2: syntax error
(standard_in) 2: syntax error
(standard_in) 2: syntax error
(standard_in) 2: syntax error
(standard_in) 2: syntax error
(standard_in) 2: syntax error
(standard_in) 2: syntax error
(standard_in) 2: syntax error
(standard_in) 2: syntax error
(standard_in) 2: syntax error
(standard_in) 2: syntax error
(standard_in) 2: syntax error
(standard_in) 2: syntax error
(standard_in) 2: syntax error
(standard_in) 2: syntax error
(standard_in) 2: syntax error
(standard_in) 2: syntax error
(standard_in) 2: syntax error
(standard_in) 2: syntax error
(standard_in) 2: syntax error
(standard_in) 2: syntax error
(standard_in) 2: syntax error
(standard_in) 2: syntax error
(standard_in) 2: syntax error
(standard_in) 2: syntax error
(standard_in) 2: syntax error
(standard_in) 2: syntax error
(standard_in) 2: syntax error
(standard_in) 2: syntax error
(standard_in) 2: syntax error
(standard_in) 2: syntax error
(standard_in) 2: syntax error
(standard_in) 2: syntax error
(standard_in) 2: syntax error
(standard_in) 2: syntax error
(standard_in) 2: syntax error
(standard_in) 2: syntax error
(standard_in) 2: syntax error
(standard_in) 2: syntax error
(standard_in) 2: syntax error
(standard_in) 2: syntax error
(standard_in) 2: syntax error
(standard_in) 2: syntax error
(standard_in) 2: syntax error
(standard_in) 2: syntax error
(standard_in) 2: syntax error
(standard_in) 2: syntax error
(standard_in) 2: syntax error
(standard_in) 2: syntax error
(standard_in) 2: syntax error
(standard_in) 2: syntax error
(standard_in) 2: syntax error
(standard_in) 2: syntax error
(standard_in) 2: syntax error
(standard_in) 2: syntax error
(standard_in) 2: syntax error
(standard_in) 2: syntax error
(standard_in) 2: syntax error
(standard_in) 2: syntax error
(standard_in) 2: syntax error
(standard_in) 2: syntax error
(standard_in) 2: syntax error
(standard_in) 2: syntax error
(standard_in) 2: syntax error
(standard_in) 2: syntax error
(standard_in) 2: syntax error
(standard_in) 2: syntax error
(standard_in) 2: syntax error
(standard_in) 2: syntax error
(standard_in) 2: syntax error
(standard_in) 2: syntax error
(standard_in) 2: syntax error
(standard_in) 2: syntax error
(standard_in) 2: syntax error
(standard_in) 2: syntax error
(standard_in) 2: syntax error
(standard_in) 2: syntax error
(standard_in) 2: syntax error
(standard_in) 2: syntax error
(standard_in) 2: syntax error
(standard_in) 2: syntax error
(standard_in) 2: syntax error
(standard_in) 2: syntax error
(standard_in) 2: syntax error
(standard_in) 2: syntax error
(standard_in) 2: syntax error
(standard_in) 2: syntax error
(standard_in) 2: syntax error
(standard_in) 2: syntax error
(standard_in) 2: syntax error
(standard_in) 2: syntax error
(standard_in) 2: syntax error
(standard_in) 2: syntax error
(standard_in) 2: syntax error
(standard_in) 2: syntax error
(standard_in) 2: syntax error
(standard_in) 2: syntax error
(standard_in) 2: syntax error
(standard_in) 2: syntax error
(standard_in) 2: syntax error
(standard_in) 2: syntax error
(standard_in) 2: syntax error
(standard_in) 2: syntax error
(standard_in) 2: syntax error
(standard_in) 2: syntax error
(standard_in) 2: syntax error
(standard_in) 2: syntax error
(standard_in) 2: syntax error
(standard_in) 2: syntax error
(standard_in) 2: syntax error
(standard_in) 2: syntax error
(standard_in) 2: syntax error
(standard_in) 2: syntax error
(standard_in) 2: syntax error
(standard_in) 2: syntax error
(standard_in) 2: syntax error
(standard_in) 2: syntax error
(standard_in) 2: syntax error
(standard_in) 2: syntax error
(standard_in) 2: syntax error
(standard_in) 2: syntax error
(standard_in) 2: syntax error
(standard_in) 2: syntax error
(standard_in) 2: syntax error
(standard_in) 2: syntax error
(standard_in) 2: syntax error
(standard_in) 2: syntax error
(standard_in) 2: syntax error
(standard_in) 2: syntax error
(standard_in) 2: syntax error
(standard_in) 2: syntax error
(standard_in) 2: syntax error
(standard_in) 2: syntax error
(standard_in) 2: syntax error
(standard_in) 2: syntax error
(standard_in) 2: syntax error
(standard_in) 2: syntax error
(standard_in) 2: syntax error
(standard_in) 2: syntax error
(standard_in) 2: syntax error
(standard_in) 2: syntax error
(standard_in) 2: syntax error
(standard_in) 2: syntax error
(standard_in) 2: syntax error
(standard_in) 2: syntax error
(standard_in) 2: syntax error
(standard_in) 2: syntax error
(standard_in) 2: syntax error
(standard_in) 2: syntax error
(standard_in) 2: syntax error
(standard_in) 2: syntax error
(standard_in) 2: syntax error
(standard_in) 2: syntax error
(standard_in) 2: syntax error
(standard_in) 2: syntax error
(standard_in) 2: syntax error
(standard_in) 2: syntax error
(standard_in) 2: syntax error
(standard_in) 2: syntax error
(standard_in) 2: syntax error
(standard_in) 2: syntax error
(standard_in) 2: syntax error
(standard_in) 2: syntax error
(standard_in) 2: syntax error
(standard_in) 2: syntax error
(standard_in) 2: syntax error
(standard_in) 2: syntax error
(standard_in) 2: syntax error
(standard_in) 2: syntax error
(standard_in) 2: syntax error
(standard_in) 2: syntax error
(standard_in) 2: syntax error
(standard_in) 2: syntax error
(standard_in) 2: syntax error
(standard_in) 2: syntax error
(standard_in) 2: syntax error
(standard_in) 2: syntax error
(standard_in) 2: syntax error
(standard_in) 2: syntax error
(standard_in) 2: syntax error
(standard_in) 2: syntax error
(standard_in) 2: syntax error
(standard_in) 2: syntax error
(standard_in) 2: syntax error
(standard_in) 2: syntax error
(standard_in) 2: syntax error
(standard_in) 2: syntax error
(standard_in) 2: syntax error
(standard_in) 2: syntax error
(standard_in) 2: syntax error
(standard_in) 2: syntax error
(standard_in) 2: syntax error
(standard_in) 2: syntax error
(standard_in) 2: syntax error
(standard_in) 2: syntax error
(standard_in) 2: syntax error
(standard_in) 2: syntax error
(standard_in) 2: syntax error
(standard_in) 2: syntax error
(standard_in) 2: syntax error
(standard_in) 2: syntax error
(standard_in) 2: syntax error
(standard_in) 2: syntax error
(standard_in) 2: syntax error
(standard_in) 2: syntax error
(standard_in) 2: syntax error
(standard_in) 2: syntax error
(standard_in) 2: syntax error
(standard_in) 2: syntax error
(standard_in) 2: syntax error
(standard_in) 2: syntax error
(standard_in) 2: syntax error
(standard_in) 2: syntax error
(standard_in) 2: syntax error
(standard_in) 2: syntax error
(standard_in) 2: syntax error
(standard_in) 2: syntax error
(standard_in) 2: syntax error
(standard_in) 2: syntax error
(standard_in) 2: syntax error
(standard_in) 2: syntax error
(standard_in) 2: syntax error
(standard_in) 2: syntax error
(standard_in) 2: syntax error
(standard_in) 2: syntax error
(standard_in) 2: syntax error
(standard_in) 2: syntax error
(standard_in) 2: syntax error
(standard_in) 2: syntax error
(standard_in) 2: syntax error
(standard_in) 2: syntax error
(standard_in) 2: syntax error
(standard_in) 2: syntax error
(standard_in) 2: syntax error
(standard_in) 2: syntax error
(standard_in) 2: syntax error
(standard_in) 2: syntax error
(standard_in) 2: syntax error
(standard_in) 2: syntax error
(standard_in) 2: syntax error
(standard_in) 2: syntax error
(standard_in) 2: syntax error
(standard_in) 2: syntax error
(standard_in) 2: syntax error
(standard_in) 2: syntax error
(standard_in) 2: syntax error
(standard_in) 2: syntax error
(standard_in) 2: syntax error
(standard_in) 2: syntax error
(standard_in) 2: syntax error
(standard_in) 2: syntax error
(standard_in) 2: syntax error
(standard_in) 2: syntax error
(standard_in) 2: syntax error
(standard_in) 2: syntax error
(standard_in) 2: syntax error
(standard_in) 2: syntax error
(standard_in) 2: syntax error
(standard_in) 2: syntax error
(standard_in) 2: syntax error
(standard_in) 2: syntax error
(standard_in) 2: syntax error
(standard_in) 2: syntax error
(standard_in) 2: syntax error
(standard_in) 2: syntax error
(standard_in) 2: syntax error
(standard_in) 2: syntax error
(standard_in) 2: syntax error
(standard_in) 2: syntax error
(standard_in) 2: syntax error
(standard_in) 2: syntax error
(standard_in) 2: syntax error
(standard_in) 2: syntax error
(standard_in) 2: syntax error
(standard_in) 2: syntax error
(standard_in) 2: syntax error
(standard_in) 2: syntax error
(standard_in) 2: syntax error
(standard_in) 2: syntax error
(standard_in) 2: syntax error
(standard_in) 2: syntax error
(standard_in) 2: syntax error
(standard_in) 2: syntax error
(standard_in) 2: syntax error
(standard_in) 2: syntax error
(standard_in) 2: syntax error
(standard_in) 2: syntax error
(standard_in) 2: syntax error
(standard_in) 2: syntax error
(standard_in) 2: syntax error
(standard_in) 2: syntax error
(standard_in) 2: syntax error
(standard_in) 2: syntax error
(standard_in) 2: syntax error
(standard_in) 2: syntax error
(standard_in) 2: syntax error
(standard_in) 2: syntax error
(standard_in) 2: syntax error
(standard_in) 2: syntax error
(standard_in) 2: syntax error
(standard_in) 2: syntax error
(standard_in) 2: syntax error
(standard_in) 2: syntax error
(standard_in) 2: syntax error
(standard_in) 2: syntax error
(standard_in) 2: syntax error
(standard_in) 2: syntax error
(standard_in) 2: syntax error
(standard_in) 2: syntax error
(standard_in) 2: syntax error
(standard_in) 2: syntax error
(standard_in) 2: syntax error
(standard_in) 2: syntax error
(standard_in) 2: syntax error
(standard_in) 2: syntax error
(standard_in) 2: syntax error
(standard_in) 2: syntax error
(standard_in) 2: syntax error
(standard_in) 2: syntax error
(standard_in) 2: syntax error
(standard_in) 2: syntax error
(standard_in) 2: syntax error
(standard_in) 2: syntax error
(standard_in) 2: syntax error
(standard_in) 2: syntax error
(standard_in) 2: syntax error
(standard_in) 2: syntax error
(standard_in) 2: syntax error
(standard_in) 2: syntax error
(standard_in) 2: syntax error
(standard_in) 2: syntax error
(standard_in) 2: syntax error
(standard_in) 2: syntax error
(standard_in) 2: syntax error
(standard_in) 2: syntax error
(standard_in) 2: syntax error
(standard_in) 2: syntax error
(standard_in) 2: syntax error
(standard_in) 2: syntax error
(standard_in) 2: syntax error
(standard_in) 2: syntax error
(standard_in) 2: syntax error
(standard_in) 2: syntax error
(standard_in) 2: syntax error
(standard_in) 2: syntax error
(standard_in) 2: syntax error
(standard_in) 2: syntax error
(standard_in) 2: syntax error
(standard_in) 2: syntax error
(standard_in) 2: syntax error
(standard_in) 2: syntax error
(standard_in) 2: syntax error
(standard_in) 2: syntax error
(standard_in) 2: syntax error
(standard_in) 2: syntax error
(standard_in) 2: syntax error
(standard_in) 2: syntax error
(standard_in) 2: syntax error
(standard_in) 2: syntax error
(standard_in) 2: syntax error
(standard_in) 2: syntax error
(standard_in) 2: syntax error
(standard_in) 2: syntax error
(standard_in) 2: syntax error
(standard_in) 2: syntax error
(standard_in) 2: syntax error
(standard_in) 2: syntax error
(standard_in) 2: syntax error
(standard_in) 2: syntax error
(standard_in) 2: syntax error
(standard_in) 2: syntax error
(standard_in) 2: syntax error
(standard_in) 2: syntax error
(standard_in) 2: syntax error
(standard_in) 2: syntax error
(standard_in) 2: syntax error
(standard_in) 2: syntax error
(standard_in) 2: syntax error
(standard_in) 2: syntax error
(standard_in) 2: syntax error
(standard_in) 2: syntax error
(standard_in) 2: syntax error
(standard_in) 2: syntax error
(standard_in) 2: syntax error
(standard_in) 2: syntax error
(standard_in) 2: syntax error
(standard_in) 2: syntax error
(standard_in) 2: syntax error
(standard_in) 2: syntax error
(standard_in) 2: syntax error
(standard_in) 2: syntax error
(standard_in) 2: syntax error
(standard_in) 2: syntax error
(standard_in) 2: syntax error
(standard_in) 2: syntax error
(standard_in) 2: syntax error
(standard_in) 2: syntax error
(standard_in) 2: syntax error
(standard_in) 2: syntax error
(standard_in) 2: syntax error
(standard_in) 2: syntax error
(standard_in) 2: syntax error
(standard_in) 2: syntax error
(standard_in) 2: syntax error
(standard_in) 2: syntax error
(standard_in) 2: syntax error
(standard_in) 2: syntax error
(standard_in) 2: syntax error
(standard_in) 2: syntax error
(standard_in) 2: syntax error
(standard_in) 2: syntax error
(standard_in) 2: syntax error
(standard_in) 2: syntax error
(standard_in) 2: syntax error
(standard_in) 2: syntax error
(standard_in) 2: syntax error
(standard_in) 2: syntax error
(standard_in) 2: syntax error
(standard_in) 2: syntax error
(standard_in) 2: syntax error
(standard_in) 2: syntax error
(standard_in) 2: syntax error
(standard_in) 2: syntax error
(standard_in) 2: syntax error
(standard_in) 2: syntax error
(standard_in) 2: syntax error
(standard_in) 2: syntax error
(standard_in) 2: syntax error
(standard_in) 2: syntax error
(standard_in) 2: syntax error
(standard_in) 2: syntax error
(standard_in) 2: syntax error
(standard_in) 2: syntax error
(standard_in) 2: syntax error
(standard_in) 2: syntax error
(standard_in) 2: syntax error
(standard_in) 2: syntax error
(standard_in) 2: syntax error
(standard_in) 2: syntax error
(standard_in) 2: syntax error
(standard_in) 2: syntax error
(standard_in) 2: syntax error
(standard_in) 2: syntax error
(standard_in) 2: syntax error
(standard_in) 2: syntax error
(standard_in) 2: syntax error
(standard_in) 2: syntax error
(standard_in) 2: syntax error
(standard_in) 2: syntax error
(standard_in) 2: syntax error
(standard_in) 2: syntax error
(standard_in) 2: syntax error
(standard_in) 2: syntax error
(standard_in) 2: syntax error
(standard_in) 2: syntax error
(standard_in) 2: syntax error
(standard_in) 2: syntax error
(standard_in) 2: syntax error
(standard_in) 2: syntax error
(standard_in) 2: syntax error
(standard_in) 2: syntax error
(standard_in) 2: syntax error
(standard_in) 2: syntax error
(standard_in) 2: syntax error
(standard_in) 2: syntax error
(standard_in) 2: syntax error
(standard_in) 2: syntax error
(standard_in) 2: syntax error
(standard_in) 2: syntax error
(standard_in) 2: syntax error
(standard_in) 2: syntax error
(standard_in) 2: syntax error
(standard_in) 2: syntax error
(standard_in) 2: syntax error
(standard_in) 2: syntax error
(standard_in) 2: syntax error
(standard_in) 2: syntax error
(standard_in) 2: syntax error
(standard_in) 2: syntax error
(standard_in) 2: syntax error
(standard_in) 2: syntax error
(standard_in) 2: syntax error
(standard_in) 2: syntax error
(standard_in) 2: syntax error
(standard_in) 2: syntax error
(standard_in) 2: syntax error
(standard_in) 2: syntax error
(standard_in) 2: syntax error
(standard_in) 2: syntax error
(standard_in) 2: syntax error
(standard_in) 2: syntax error
(standard_in) 2: syntax error
(standard_in) 2: syntax error
(standard_in) 2: syntax error
(standard_in) 2: syntax error
(standard_in) 2: syntax error
(standard_in) 2: syntax error
(standard_in) 2: syntax error
(standard_in) 2: syntax error
(standard_in) 2: syntax error
(standard_in) 2: syntax error
(standard_in) 2: syntax error
(standard_in) 2: syntax error
(standard_in) 2: syntax error
(standard_in) 2: syntax error
(standard_in) 2: syntax error
(standard_in) 2: syntax error
(standard_in) 2: syntax error
(standard_in) 2: syntax error
(standard_in) 2: syntax error
(standard_in) 2: syntax error
(standard_in) 2: syntax error
(standard_in) 2: syntax error
(standard_in) 2: syntax error
(standard_in) 2: syntax error
(standard_in) 2: syntax error
(standard_in) 2: syntax error
(standard_in) 2: syntax error
(standard_in) 2: syntax error
(standard_in) 2: syntax error
(standard_in) 2: syntax error
(standard_in) 2: syntax error
(standard_in) 2: syntax error
(standard_in) 2: syntax error
(standard_in) 2: syntax error
(standard_in) 2: syntax error
(standard_in) 2: syntax error
(standard_in) 2: syntax error
(standard_in) 2: syntax error
(standard_in) 2: syntax error
(standard_in) 2: syntax error
(standard_in) 2: syntax error
(standard_in) 2: syntax error
(standard_in) 2: syntax error
(standard_in) 2: syntax error
(standard_in) 2: syntax error
(standard_in) 2: syntax error
(standard_in) 2: syntax error
(standard_in) 2: syntax error
(standard_in) 2: syntax error
(standard_in) 2: syntax error
(standard_in) 2: syntax error
(standard_in) 2: syntax error
(standard_in) 2: syntax error
(standard_in) 2: syntax error
(standard_in) 2: syntax error
(standard_in) 2: syntax error
(standard_in) 2: syntax error
(standard_in) 2: syntax error
(standard_in) 2: syntax error
(standard_in) 2: syntax error
(standard_in) 2: syntax error
(standard_in) 2: syntax error
(standard_in) 2: syntax error
(standard_in) 2: syntax error
(standard_in) 2: syntax error
(standard_in) 2: syntax error
(standard_in) 2: syntax error
(standard_in) 2: syntax error
(standard_in) 2: syntax error
(standard_in) 2: syntax error
(standard_in) 2: syntax error
(standard_in) 2: syntax error
(standard_in) 2: syntax error
(standard_in) 2: syntax error
(standard_in) 2: syntax error
(standard_in) 2: syntax error
(standard_in) 2: syntax error
(standard_in) 2: syntax error
(standard_in) 2: syntax error
(standard_in) 2: syntax error
(standard_in) 2: syntax error
(standard_in) 2: syntax error
(standard_in) 2: syntax error
(standard_in) 2: syntax error
(standard_in) 2: syntax error
(standard_in) 2: syntax error
(standard_in) 2: syntax error
(standard_in) 2: syntax error
(standard_in) 2: syntax error
(standard_in) 2: syntax error
(standard_in) 2: syntax error
(standard_in) 2: syntax error
(standard_in) 2: syntax error
(standard_in) 2: syntax error
(standard_in) 2: syntax error
(standard_in) 2: syntax error
(standard_in) 2: syntax error
(standard_in) 2: syntax error
(standard_in) 2: syntax error
(standard_in) 2: syntax error
(standard_in) 2: syntax error
(standard_in) 2: syntax error
(standard_in) 2: syntax error
(standard_in) 2: syntax error
(standard_in) 2: syntax error
(standard_in) 2: syntax error
(standard_in) 2: syntax error
(standard_in) 2: syntax error
(standard_in) 2: syntax error
(standard_in) 2: syntax error
(standard_in) 2: syntax error
(standard_in) 2: syntax error
(standard_in) 2: syntax error
(standard_in) 2: syntax error
(standard_in) 2: syntax error
(standard_in) 2: syntax error
(standard_in) 2: syntax error
(standard_in) 2: syntax error
(standard_in) 2: syntax error
(standard_in) 2: syntax error
(standard_in) 2: syntax error
(standard_in) 2: syntax error
(standard_in) 2: syntax error
(standard_in) 2: syntax error
(standard_in) 2: syntax error
(standard_in) 2: syntax error
(standard_in) 2: syntax error
(standard_in) 2: syntax error
(standard_in) 2: syntax error
(standard_in) 2: syntax error
(standard_in) 2: syntax error
(standard_in) 2: syntax error
(standard_in) 2: syntax error
(standard_in) 2: syntax error
(standard_in) 2: syntax error
(standard_in) 2: syntax error
(standard_in) 2: syntax error
(standard_in) 2: syntax error
(standard_in) 2: syntax error
(standard_in) 2: syntax error
(standard_in) 2: syntax error
(standard_in) 2: syntax error
(standard_in) 2: syntax error
(standard_in) 2: syntax error
(standard_in) 2: syntax error
(standard_in) 2: syntax error
(standard_in) 2: syntax error
(standard_in) 2: syntax error
(standard_in) 2: syntax error
(standard_in) 2: syntax error
(standard_in) 2: syntax error
(standard_in) 2: syntax error
(standard_in) 2: syntax error
extract quartet support and branch lenghts
Cannot read ../species_trees/av.14k.exon.astral.score.tre at /home/uym2/repositories/global/src/perl/tree_comp_morgan/CompareTree.pl line 47.
