TreeCmp version 1.0-b291

Active options:
Type of the analysis:  one-to-all comparison mode (-r)
Metrics:
  1. MatchingSplit (ms)
Input file: ../gene_trees/rogueNarok/av.14k.exon.RnR.default.trees
Output file: ../results/av.14k.exon.RnR.default.MS.dat
Additional options:
P - Prune compared trees if needed (trees can have different leaf sets).
-----
2017-06-15 19:48:28: Start of scanning input file: ../gene_trees/rogueNarok/av.14k.exon.RnR.default.trees
2017-06-15 19:48:33: End of scanning input file: ../gene_trees/rogueNarok/av.14k.exon.RnR.default.trees
2017-06-15 19:48:33: 8251 valid trees found in file: ../gene_trees/rogueNarok/av.14k.exon.RnR.default.trees
2017-06-15 19:48:33: Start of calculation...please wait...
2017-06-15 19:48:33: 0.00% completed...
2017-06-15 19:48:35: 5.01% completed...
2017-06-15 19:48:36: 10.01% completed...
2017-06-15 19:48:36: 15.02% completed...
2017-06-15 19:48:37: 20.02% completed...
2017-06-15 19:48:37: 25.03% completed...
2017-06-15 19:48:38: 30.03% completed...
2017-06-15 19:48:38: 35.04% completed...
2017-06-15 19:48:39: 40.04% completed...
2017-06-15 19:48:40: 45.05% completed...
2017-06-15 19:48:40: 50.05% completed...
2017-06-15 19:48:41: 55.06% completed...
2017-06-15 19:48:41: 60.07% completed...
2017-06-15 19:48:42: 65.07% completed...
2017-06-15 19:48:43: 70.08% completed...
2017-06-15 19:48:44: 75.08% completed...
2017-06-15 19:48:44: 80.09% completed...
2017-06-15 19:48:45: 85.09% completed...
2017-06-15 19:48:46: 90.10% completed...
2017-06-15 19:48:46: 95.10% completed...
2017-06-15 19:48:47: 100.00% completed.
2017-06-15 19:48:47: End of calculation.
2017-06-15 19:48:47: Total calculation time: 13152 ms.
Splits	Found	45	Total	45	Frac	1	MaxLnDf	0.968	Ratio	0.709	MaxBtDf	13.4
