TreeCmp version 1.0-b291

Active options:
Type of the analysis:  one-to-all comparison mode (-r)
Metrics:
  1. MatchingSplit (ms)
Input file: ../gene_trees/rogueNarok/av.14k.intron.RnR.default.trees
Output file: ../results/av.14k.intron.RnR.default.MS.dat
Additional options:
P - Prune compared trees if needed (trees can have different leaf sets).
-----
2017-06-15 12:03:29: Start of scanning input file: ../gene_trees/rogueNarok/av.14k.intron.RnR.default.trees
2017-06-15 12:03:31: End of scanning input file: ../gene_trees/rogueNarok/av.14k.intron.RnR.default.trees
2017-06-15 12:03:31: 2516 valid trees found in file: ../gene_trees/rogueNarok/av.14k.intron.RnR.default.trees
2017-06-15 12:03:31: Start of calculation...please wait...
2017-06-15 12:03:31: 0.00% completed...
2017-06-15 12:03:32: 5.01% completed...
2017-06-15 12:03:32: 10.02% completed...
2017-06-15 12:03:32: 15.02% completed...
2017-06-15 12:03:33: 20.03% completed...
2017-06-15 12:03:33: 25.04% completed...
2017-06-15 12:03:33: 30.05% completed...
2017-06-15 12:03:33: 35.06% completed...
2017-06-15 12:03:34: 40.06% completed...
2017-06-15 12:03:34: 45.07% completed...
2017-06-15 12:03:34: 50.08% completed...
2017-06-15 12:03:34: 55.09% completed...
2017-06-15 12:03:34: 60.10% completed...
2017-06-15 12:03:34: 65.10% completed...
2017-06-15 12:03:34: 70.11% completed...
2017-06-15 12:03:35: 75.12% completed...
2017-06-15 12:03:35: 80.13% completed...
2017-06-15 12:03:35: 85.14% completed...
2017-06-15 12:03:35: 90.14% completed...
2017-06-15 12:03:35: 95.15% completed...
2017-06-15 12:03:35: 100.00% completed.
2017-06-15 12:03:35: End of calculation.
2017-06-15 12:03:35: Total calculation time: 4574 ms.
Splits	Found	45	Total	45	Frac	1	MaxLnDf	1.09	Ratio	0.89	MaxBtDf	8.22
