pruning
(standard_in) 1: syntax error
(standard_in) 1: syntax error
Traceback (most recent call last):
  File "/home/uym2/my_gits/myTools/prune_by_threshold.py", line 44, in <module>
    thres = float(argv[2])
IndexError: list index out of range
(standard_in) 1: syntax error
(standard_in) 1: syntax error
Traceback (most recent call last):
  File "/home/uym2/my_gits/myTools/prune_by_threshold.py", line 44, in <module>
    thres = float(argv[2])
IndexError: list index out of range
(standard_in) 1: syntax error
(standard_in) 1: syntax error
Traceback (most recent call last):
  File "/home/uym2/my_gits/myTools/prune_by_threshold.py", line 44, in <module>
    thres = float(argv[2])
IndexError: list index out of range
astral scoring
extract occupancy
compute MS
TreeCmp version 1.0-b291

Active options:
Type of the analysis:  one-to-all comparison mode (-r)
Metrics:
  1. MatchingSplit (ms)
Input file: ../gene_trees/rooted_pruning/av.14k.exon.gt.mixed.3.5.trees
Output file: ../results/av.14k.exon.mixed.3.5.MS.dat
Additional options:
P - Prune compared trees if needed (trees can have different leaf sets).
-----
2017-06-15 20:16:44: Start of scanning input file: ../gene_trees/rooted_pruning/av.14k.exon.gt.mixed.3.5.trees
2017-06-15 20:16:46: End of scanning input file: ../gene_trees/rooted_pruning/av.14k.exon.gt.mixed.3.5.trees
2017-06-15 20:16:46: 8248 valid trees found in file: ../gene_trees/rooted_pruning/av.14k.exon.gt.mixed.3.5.trees
2017-06-15 20:16:46: Start of calculation...please wait...
2017-06-15 20:16:46: 0.00% completed...
2017-06-15 20:16:46: 5.01% completed...
2017-06-15 20:16:47: 10.01% completed...
2017-06-15 20:16:47: 15.02% completed...
2017-06-15 20:16:47: 20.03% completed...
2017-06-15 20:16:48: 25.04% completed...
2017-06-15 20:16:48: 30.04% completed...
2017-06-15 20:16:48: 35.05% completed...
2017-06-15 20:16:48: 40.06% completed...
2017-06-15 20:16:48: 45.07% completed...
2017-06-15 20:16:49: 50.07% completed...
2017-06-15 20:16:49: 55.08% completed...
2017-06-15 20:16:49: 60.09% completed...
2017-06-15 20:16:49: 65.09% completed...
2017-06-15 20:16:49: 70.10% completed...
2017-06-15 20:16:50: 75.11% completed...
2017-06-15 20:16:50: 80.12% completed...
2017-06-15 20:16:50: 85.12% completed...
2017-06-15 20:16:50: 90.13% completed...
2017-06-15 20:16:50: 95.14% completed...
2017-06-15 20:16:51: 100.00% completed.
2017-06-15 20:16:51: End of calculation.
2017-06-15 20:16:51: Total calculation time: 4853 ms.
compute RF
extract quartet support and branch lenghts
Splits	Found	45	Total	45	Frac	1	MaxLnDf	0.0509	Ratio	0.99	MaxBtDf	0.77
