computing Astral species tree
done
computing quartet score by astral ...
done
computing local support by astral ...
done
extracting occupancy ...
done
computing MS ...
TreeCmp version 1.0-b291

Active options:
Type of the analysis:  one-to-all comparison mode (-r)
Metrics:
  1. MatchingSplit (ms)
Input file: ../gene_trees/original/av.14k.intron.gt.trees
Output file: ../results/av.14k.intron.org.MS.dat
Additional options:
P - Prune compared trees if needed (trees can have different leaf sets).
-----
2017-06-15 11:50:18: Start of scanning input file: ../gene_trees/original/av.14k.intron.gt.trees
2017-06-15 11:50:19: End of scanning input file: ../gene_trees/original/av.14k.intron.gt.trees
2017-06-15 11:50:19: 2516 valid trees found in file: ../gene_trees/original/av.14k.intron.gt.trees
2017-06-15 11:50:19: Start of calculation...please wait...
2017-06-15 11:50:19: 0.00% completed...
2017-06-15 11:50:20: 5.01% completed...
2017-06-15 11:50:20: 10.02% completed...
2017-06-15 11:50:20: 15.02% completed...
2017-06-15 11:50:20: 20.03% completed...
2017-06-15 11:50:20: 25.04% completed...
2017-06-15 11:50:20: 30.05% completed...
2017-06-15 11:50:20: 35.06% completed...
2017-06-15 11:50:21: 40.06% completed...
2017-06-15 11:50:21: 45.07% completed...
2017-06-15 11:50:21: 50.08% completed...
2017-06-15 11:50:21: 55.09% completed...
2017-06-15 11:50:21: 60.10% completed...
2017-06-15 11:50:21: 65.10% completed...
2017-06-15 11:50:21: 70.11% completed...
2017-06-15 11:50:21: 75.12% completed...
2017-06-15 11:50:21: 80.13% completed...
2017-06-15 11:50:21: 85.14% completed...
2017-06-15 11:50:21: 90.14% completed...
2017-06-15 11:50:22: 95.15% completed...
2017-06-15 11:50:22: 100.00% completed.
2017-06-15 11:50:22: End of calculation.
2017-06-15 11:50:22: Total calculation time: 2647 ms.
done
computing RF ...
done
All done!
