TreeCmp version 1.0-b291

Active options:
Type of the analysis:  one-to-all comparison mode (-r)
Metrics:
  1. MatchingSplit (ms)
Input file: ../gene_trees/rogueNarok/av.14k.intron.RnR.Lone.trees
Output file: ../results/av.14k.intron.RnR.Lone.MS.dat
Additional options:
P - Prune compared trees if needed (trees can have different leaf sets).
-----
2017-06-15 12:03:31: Start of scanning input file: ../gene_trees/rogueNarok/av.14k.intron.RnR.Lone.trees
2017-06-15 12:03:33: End of scanning input file: ../gene_trees/rogueNarok/av.14k.intron.RnR.Lone.trees
2017-06-15 12:03:33: 2516 valid trees found in file: ../gene_trees/rogueNarok/av.14k.intron.RnR.Lone.trees
2017-06-15 12:03:33: Start of calculation...please wait...
2017-06-15 12:03:33: 0.00% completed...
2017-06-15 12:03:34: 5.01% completed...
2017-06-15 12:03:35: 10.02% completed...
2017-06-15 12:03:35: 15.02% completed...
2017-06-15 12:03:35: 20.03% completed...
2017-06-15 12:03:36: 25.04% completed...
2017-06-15 12:03:36: 30.05% completed...
2017-06-15 12:03:36: 35.06% completed...
2017-06-15 12:03:36: 40.06% completed...
2017-06-15 12:03:37: 45.07% completed...
2017-06-15 12:03:37: 50.08% completed...
2017-06-15 12:03:37: 55.09% completed...
2017-06-15 12:03:37: 60.10% completed...
2017-06-15 12:03:37: 65.10% completed...
2017-06-15 12:03:37: 70.11% completed...
2017-06-15 12:03:37: 75.12% completed...
2017-06-15 12:03:38: 80.13% completed...
2017-06-15 12:03:38: 85.14% completed...
2017-06-15 12:03:38: 90.14% completed...
2017-06-15 12:03:38: 95.15% completed...
2017-06-15 12:03:38: 100.00% completed.
2017-06-15 12:03:38: End of calculation.
2017-06-15 12:03:38: Total calculation time: 4488 ms.
Splits	Found	45	Total	45	Frac	1	MaxLnDf	0.226	Ratio	0.986	MaxBtDf	1.22
