pruning
(standard_in) 1: syntax error
(standard_in) 1: syntax error
Traceback (most recent call last):
  File "/home/uym2/my_gits/myTools/prune_by_threshold.py", line 44, in <module>
    thres = float(argv[2])
IndexError: list index out of range
(standard_in) 1: syntax error
(standard_in) 1: syntax error
Traceback (most recent call last):
  File "/home/uym2/my_gits/myTools/prune_by_threshold.py", line 44, in <module>
    thres = float(argv[2])
IndexError: list index out of range
(standard_in) 1: syntax error
(standard_in) 1: syntax error
Traceback (most recent call last):
  File "/home/uym2/my_gits/myTools/prune_by_threshold.py", line 44, in <module>
    thres = float(argv[2])
IndexError: list index out of range
astral scoring
extract occupancy
compute MS
TreeCmp version 1.0-b291

Active options:
Type of the analysis:  one-to-all comparison mode (-r)
Metrics:
  1. MatchingSplit (ms)
Input file: ../gene_trees/rooted_pruning/av.14k.exon.gt.mixed.2.5.trees
Output file: ../results/av.14k.exon.mixed.2.5.MS.dat
Additional options:
P - Prune compared trees if needed (trees can have different leaf sets).
-----
2017-06-15 20:16:42: Start of scanning input file: ../gene_trees/rooted_pruning/av.14k.exon.gt.mixed.2.5.trees
2017-06-15 20:16:43: End of scanning input file: ../gene_trees/rooted_pruning/av.14k.exon.gt.mixed.2.5.trees
2017-06-15 20:16:43: 8248 valid trees found in file: ../gene_trees/rooted_pruning/av.14k.exon.gt.mixed.2.5.trees
2017-06-15 20:16:43: Start of calculation...please wait...
2017-06-15 20:16:43: 0.00% completed...
2017-06-15 20:16:44: 5.01% completed...
2017-06-15 20:16:44: 10.01% completed...
2017-06-15 20:16:44: 15.02% completed...
2017-06-15 20:16:45: 20.03% completed...
2017-06-15 20:16:45: 25.04% completed...
2017-06-15 20:16:45: 30.04% completed...
2017-06-15 20:16:45: 35.05% completed...
2017-06-15 20:16:46: 40.06% completed...
2017-06-15 20:16:46: 45.07% completed...
2017-06-15 20:16:46: 50.07% completed...
2017-06-15 20:16:46: 55.08% completed...
2017-06-15 20:16:47: 60.09% completed...
2017-06-15 20:16:47: 65.09% completed...
2017-06-15 20:16:47: 70.10% completed...
2017-06-15 20:16:47: 75.11% completed...
2017-06-15 20:16:47: 80.12% completed...
2017-06-15 20:16:48: 85.12% completed...
2017-06-15 20:16:48: 90.13% completed...
2017-06-15 20:16:48: 95.14% completed...
2017-06-15 20:16:48: 100.00% completed.
2017-06-15 20:16:48: End of calculation.
2017-06-15 20:16:48: Total calculation time: 4875 ms.
compute RF
extract quartet support and branch lenghts
Splits	Found	45	Total	45	Frac	1	MaxLnDf	0.113	Ratio	0.989	MaxBtDf	1.71
