quartet scoring by astral ...
done
computing local support by astral ...
done
extracting occupancy ...
done
computing MS ...
TreeCmp version 1.0-b291

Active options:
Type of the analysis:  one-to-all comparison mode (-r)
Metrics:
  1. MatchingSplit (ms)
Input file: ../gene_trees/LBF/av.14k.exon.gt.LBF.med.0.05.trees
Output file: ../results/av.14k.exon.med.0.05.MS.dat
Additional options:
P - Prune compared trees if needed (trees can have different leaf sets).
-----
2017-06-15 19:49:19: Start of scanning input file: ../gene_trees/LBF/av.14k.exon.gt.LBF.med.0.05.trees
2017-06-15 19:49:22: End of scanning input file: ../gene_trees/LBF/av.14k.exon.gt.LBF.med.0.05.trees
2017-06-15 19:49:22: 8251 valid trees found in file: ../gene_trees/LBF/av.14k.exon.gt.LBF.med.0.05.trees
2017-06-15 19:49:22: Start of calculation...please wait...
2017-06-15 19:49:22: 0.00% completed...
2017-06-15 19:49:23: 5.01% completed...
2017-06-15 19:49:24: 10.01% completed...
2017-06-15 19:49:24: 15.02% completed...
2017-06-15 19:49:25: 20.02% completed...
2017-06-15 19:49:26: 25.03% completed...
2017-06-15 19:49:26: 30.03% completed...
2017-06-15 19:49:27: 35.04% completed...
2017-06-15 19:49:27: 40.04% completed...
2017-06-15 19:49:28: 45.05% completed...
2017-06-15 19:49:28: 50.05% completed...
2017-06-15 19:49:28: 55.06% completed...
2017-06-15 19:49:29: 60.07% completed...
2017-06-15 19:49:29: 65.07% completed...
2017-06-15 19:49:30: 70.08% completed...
2017-06-15 19:49:31: 75.08% completed...
2017-06-15 19:49:31: 80.09% completed...
2017-06-15 19:49:32: 85.09% completed...
2017-06-15 19:49:32: 90.10% completed...
2017-06-15 19:49:33: 95.10% completed...
2017-06-15 19:49:33: 100.00% completed.
2017-06-15 19:49:33: End of calculation.
2017-06-15 19:49:33: Total calculation time: 11343 ms.
done
computing RF ...
done
comparing quartet score to original ...
Splits	Found	45	Total	45	Frac	1	MaxLnDf	0.196	Ratio	0.951	MaxBtDf	1.87
done
comparing local support to original ...
Splits	Found	45	Total	45	Frac	1	MaxLnDf	0.196	Ratio	0.951	MaxBtDf	1.87
done
All done!
