filtering ...
Loading required package: BMS
/home/uym2/my_gits/LongBranchFiltering/find_threshold_lkernel.R
done
quartet scoring by astral ...
done
computing local support by astral ...
done
extracting occupancy ...
done
computing MS ...
TreeCmp version 1.0-b291

Active options:
Type of the analysis:  one-to-all comparison mode (-r)
Metrics:
  1. MatchingSplit (ms)
Input file: ../gene_trees/LBF/av.14k.intron.gt.LBF.med.0.025.trees
Output file: ../results/av.14k.intron.med.0.025.MS.dat
Additional options:
P - Prune compared trees if needed (trees can have different leaf sets).
-----
2017-06-15 13:04:03: Start of scanning input file: ../gene_trees/LBF/av.14k.intron.gt.LBF.med.0.025.trees
2017-06-15 13:04:04: End of scanning input file: ../gene_trees/LBF/av.14k.intron.gt.LBF.med.0.025.trees
2017-06-15 13:04:04: 2516 valid trees found in file: ../gene_trees/LBF/av.14k.intron.gt.LBF.med.0.025.trees
2017-06-15 13:04:04: Start of calculation...please wait...
2017-06-15 13:04:04: 0.00% completed...
2017-06-15 13:04:05: 5.01% completed...
2017-06-15 13:04:05: 10.02% completed...
2017-06-15 13:04:05: 15.02% completed...
2017-06-15 13:04:05: 20.03% completed...
2017-06-15 13:04:05: 25.04% completed...
2017-06-15 13:04:06: 30.05% completed...
2017-06-15 13:04:06: 35.06% completed...
2017-06-15 13:04:06: 40.06% completed...
2017-06-15 13:04:06: 45.07% completed...
2017-06-15 13:04:06: 50.08% completed...
2017-06-15 13:04:06: 55.09% completed...
2017-06-15 13:04:06: 60.10% completed...
2017-06-15 13:04:06: 65.10% completed...
2017-06-15 13:04:06: 70.11% completed...
2017-06-15 13:04:07: 75.12% completed...
2017-06-15 13:04:07: 80.13% completed...
2017-06-15 13:04:07: 85.14% completed...
2017-06-15 13:04:07: 90.14% completed...
2017-06-15 13:04:07: 95.15% completed...
2017-06-15 13:04:07: 100.00% completed.
2017-06-15 13:04:07: End of calculation.
2017-06-15 13:04:07: Total calculation time: 2774 ms.
done
computing RF ...
done
comparing quartet score to original ...
Splits	Found	45	Total	45	Frac	1	MaxLnDf	4.09	Ratio	0.885	MaxBtDf	5.93
done
comparing local support to original ...
Splits	Found	45	Total	45	Frac	1	MaxLnDf	4.09	Ratio	0.885	MaxBtDf	5.93
done
All done!
