pruning
astral scoring
extract occupancy
compute MS
TreeCmp version 1.0-b291

Active options:
Type of the analysis:  one-to-all comparison mode (-r)
Metrics:
  1. MatchingSplit (ms)
Input file: ../gene_trees/rooted_pruning/av.14k.intron.gt.mixed.3.0.trees
Output file: ../results/av.14k.intron.mixed.3.0.MS.dat
Additional options:
P - Prune compared trees if needed (trees can have different leaf sets).
-----
2017-06-15 13:11:03: Start of scanning input file: ../gene_trees/rooted_pruning/av.14k.intron.gt.mixed.3.0.trees
2017-06-15 13:11:04: End of scanning input file: ../gene_trees/rooted_pruning/av.14k.intron.gt.mixed.3.0.trees
2017-06-15 13:11:04: 2516 valid trees found in file: ../gene_trees/rooted_pruning/av.14k.intron.gt.mixed.3.0.trees
2017-06-15 13:11:04: Start of calculation...please wait...
2017-06-15 13:11:04: 0.00% completed...
2017-06-15 13:11:05: 5.01% completed...
2017-06-15 13:11:05: 10.02% completed...
2017-06-15 13:11:05: 15.02% completed...
2017-06-15 13:11:06: 20.03% completed...
2017-06-15 13:11:06: 25.04% completed...
2017-06-15 13:11:06: 30.05% completed...
2017-06-15 13:11:06: 35.06% completed...
2017-06-15 13:11:06: 40.06% completed...
2017-06-15 13:11:06: 45.07% completed...
2017-06-15 13:11:06: 50.08% completed...
2017-06-15 13:11:07: 55.09% completed...
2017-06-15 13:11:07: 60.10% completed...
2017-06-15 13:11:07: 65.10% completed...
2017-06-15 13:11:07: 70.11% completed...
2017-06-15 13:11:07: 75.12% completed...
2017-06-15 13:11:07: 80.13% completed...
2017-06-15 13:11:07: 85.14% completed...
2017-06-15 13:11:07: 90.14% completed...
2017-06-15 13:11:07: 95.15% completed...
2017-06-15 13:11:07: 100.00% completed.
2017-06-15 13:11:07: End of calculation.
2017-06-15 13:11:07: Total calculation time: 2955 ms.
compute RF
extract quartet support and branch lenghts
Splits	Found	45	Total	45	Frac	1	MaxLnDf	2.82	Ratio	0.903	MaxBtDf	5.67
