quartet scoring by astral ...
done
computing local support by astral ...
done
extracting occupancy ...
done
computing MS ...
TreeCmp version 1.0-b291

Active options:
Type of the analysis:  one-to-all comparison mode (-r)
Metrics:
  1. MatchingSplit (ms)
Input file: ../gene_trees/LBF/av.14k.exon.gt.LBF.med.0.025.trees
Output file: ../results/av.14k.exon.med.0.025.MS.dat
Additional options:
P - Prune compared trees if needed (trees can have different leaf sets).
-----
2017-06-15 19:49:19: Start of scanning input file: ../gene_trees/LBF/av.14k.exon.gt.LBF.med.0.025.trees
2017-06-15 19:49:23: End of scanning input file: ../gene_trees/LBF/av.14k.exon.gt.LBF.med.0.025.trees
2017-06-15 19:49:23: 8251 valid trees found in file: ../gene_trees/LBF/av.14k.exon.gt.LBF.med.0.025.trees
2017-06-15 19:49:23: Start of calculation...please wait...
2017-06-15 19:49:23: 0.00% completed...
2017-06-15 19:49:25: 5.01% completed...
2017-06-15 19:49:26: 10.01% completed...
2017-06-15 19:49:26: 15.02% completed...
2017-06-15 19:49:27: 20.02% completed...
2017-06-15 19:49:27: 25.03% completed...
2017-06-15 19:49:28: 30.03% completed...
2017-06-15 19:49:28: 35.04% completed...
2017-06-15 19:49:28: 40.04% completed...
2017-06-15 19:49:29: 45.05% completed...
2017-06-15 19:49:29: 50.05% completed...
2017-06-15 19:49:30: 55.06% completed...
2017-06-15 19:49:30: 60.07% completed...
2017-06-15 19:49:30: 65.07% completed...
2017-06-15 19:49:31: 70.08% completed...
2017-06-15 19:49:31: 75.08% completed...
2017-06-15 19:49:32: 80.09% completed...
2017-06-15 19:49:32: 85.09% completed...
2017-06-15 19:49:32: 90.10% completed...
2017-06-15 19:49:33: 95.10% completed...
2017-06-15 19:49:33: 100.00% completed.
2017-06-15 19:49:33: End of calculation.
2017-06-15 19:49:33: Total calculation time: 9842 ms.
done
computing RF ...
done
comparing quartet score to original ...
Splits	Found	45	Total	45	Frac	1	MaxLnDf	0.107	Ratio	0.972	MaxBtDf	1.09
done
comparing local support to original ...
Splits	Found	45	Total	45	Frac	1	MaxLnDf	0.107	Ratio	0.972	MaxBtDf	1.09
done
All done!
