TreeCmp version 1.0-b291

Active options:
Type of the analysis:  one-to-all comparison mode (-r)
Metrics:
  1. MatchingSplit (ms)
Input file: ../gene_trees/rogueNarok/av.14k.exon.RnR.Lhalf.trees
Output file: ../results/av.14k.exon.RnR.Lhalf.MS.dat
Additional options:
P - Prune compared trees if needed (trees can have different leaf sets).
-----
2017-06-15 19:48:42: Start of scanning input file: ../gene_trees/rogueNarok/av.14k.exon.RnR.Lhalf.trees
2017-06-15 19:48:49: End of scanning input file: ../gene_trees/rogueNarok/av.14k.exon.RnR.Lhalf.trees
2017-06-15 19:48:49: 8251 valid trees found in file: ../gene_trees/rogueNarok/av.14k.exon.RnR.Lhalf.trees
2017-06-15 19:48:49: Start of calculation...please wait...
2017-06-15 19:48:49: 0.00% completed...
2017-06-15 19:48:51: 5.01% completed...
2017-06-15 19:48:52: 10.01% completed...
2017-06-15 19:48:53: 15.02% completed...
2017-06-15 19:48:53: 20.02% completed...
2017-06-15 19:48:54: 25.03% completed...
2017-06-15 19:48:54: 30.03% completed...
2017-06-15 19:48:55: 35.04% completed...
2017-06-15 19:48:55: 40.04% completed...
2017-06-15 19:48:56: 45.05% completed...
2017-06-15 19:48:57: 50.05% completed...
2017-06-15 19:48:57: 55.06% completed...
2017-06-15 19:48:58: 60.07% completed...
2017-06-15 19:48:59: 65.07% completed...
2017-06-15 19:48:59: 70.08% completed...
2017-06-15 19:49:00: 75.08% completed...
2017-06-15 19:49:01: 80.09% completed...
2017-06-15 19:49:01: 85.09% completed...
2017-06-15 19:49:02: 90.10% completed...
2017-06-15 19:49:02: 95.10% completed...
2017-06-15 19:49:03: 100.00% completed.
2017-06-15 19:49:03: End of calculation.
2017-06-15 19:49:03: Total calculation time: 13519 ms.
Splits	Found	45	Total	45	Frac	1	MaxLnDf	0.0376	Ratio	0.99	MaxBtDf	0.5
