quartet scoring by astral ...
done
computing local support by astral ...
done
extracting occupancy ...
done
computing MS ...
TreeCmp version 1.0-b291

Active options:
Type of the analysis:  one-to-all comparison mode (-r)
Metrics:
  1. MatchingSplit (ms)
Input file: ../gene_trees/LBF/av.14k.exon.gt.LBF.med.0.075.trees
Output file: ../results/av.14k.exon.med.0.075.MS.dat
Additional options:
P - Prune compared trees if needed (trees can have different leaf sets).
-----
2017-06-15 19:49:11: Start of scanning input file: ../gene_trees/LBF/av.14k.exon.gt.LBF.med.0.075.trees
2017-06-15 19:49:15: End of scanning input file: ../gene_trees/LBF/av.14k.exon.gt.LBF.med.0.075.trees
2017-06-15 19:49:15: 8251 valid trees found in file: ../gene_trees/LBF/av.14k.exon.gt.LBF.med.0.075.trees
2017-06-15 19:49:15: Start of calculation...please wait...
2017-06-15 19:49:16: 0.00% completed...
2017-06-15 19:49:17: 5.01% completed...
2017-06-15 19:49:18: 10.01% completed...
2017-06-15 19:49:19: 15.02% completed...
2017-06-15 19:49:20: 20.02% completed...
2017-06-15 19:49:20: 25.03% completed...
2017-06-15 19:49:20: 30.03% completed...
2017-06-15 19:49:21: 35.04% completed...
2017-06-15 19:49:21: 40.04% completed...
2017-06-15 19:49:21: 45.05% completed...
2017-06-15 19:49:22: 50.05% completed...
2017-06-15 19:49:22: 55.06% completed...
2017-06-15 19:49:23: 60.07% completed...
2017-06-15 19:49:24: 65.07% completed...
2017-06-15 19:49:24: 70.08% completed...
2017-06-15 19:49:25: 75.08% completed...
2017-06-15 19:49:25: 80.09% completed...
2017-06-15 19:49:26: 85.09% completed...
2017-06-15 19:49:26: 90.10% completed...
2017-06-15 19:49:27: 95.10% completed...
2017-06-15 19:49:27: 100.00% completed.
2017-06-15 19:49:27: End of calculation.
2017-06-15 19:49:27: Total calculation time: 11571 ms.
done
computing RF ...
done
comparing quartet score to original ...
Splits	Found	45	Total	45	Frac	1	MaxLnDf	0.276	Ratio	0.932	MaxBtDf	2.55
done
comparing local support to original ...
Splits	Found	45	Total	45	Frac	1	MaxLnDf	0.276	Ratio	0.932	MaxBtDf	2.55
done
All done!
