pruning ...
done
quartet scoring by astral ...
done
computing local support by astral ...
done
extracting occupancy ...
done
computing MS ...
TreeCmp version 1.0-b291

Active options:
Type of the analysis:  one-to-all comparison mode (-r)
Metrics:
  1. MatchingSplit (ms)
Input file: ../gene_trees/randprune/av.14k.exon.gt.randprune.med.0.1.trees
Output file: ../results/av.14k.exon.randprune.med.0.1.MS.dat
Additional options:
P - Prune compared trees if needed (trees can have different leaf sets).
-----
2017-06-15 19:50:55: Start of scanning input file: ../gene_trees/randprune/av.14k.exon.gt.randprune.med.0.1.trees
2017-06-15 19:51:00: End of scanning input file: ../gene_trees/randprune/av.14k.exon.gt.randprune.med.0.1.trees
2017-06-15 19:51:00: 8251 valid trees found in file: ../gene_trees/randprune/av.14k.exon.gt.randprune.med.0.1.trees
2017-06-15 19:51:00: Start of calculation...please wait...
2017-06-15 19:51:00: 0.00% completed...
2017-06-15 19:51:01: 5.01% completed...
2017-06-15 19:51:01: 10.01% completed...
2017-06-15 19:51:02: 15.02% completed...
2017-06-15 19:51:02: 20.02% completed...
2017-06-15 19:51:03: 25.03% completed...
2017-06-15 19:51:03: 30.03% completed...
2017-06-15 19:51:04: 35.04% completed...
2017-06-15 19:51:04: 40.04% completed...
2017-06-15 19:51:04: 45.05% completed...
2017-06-15 19:51:05: 50.05% completed...
2017-06-15 19:51:05: 55.06% completed...
2017-06-15 19:51:06: 60.07% completed...
2017-06-15 19:51:06: 65.07% completed...
2017-06-15 19:51:07: 70.08% completed...
2017-06-15 19:51:07: 75.08% completed...
2017-06-15 19:51:07: 80.09% completed...
2017-06-15 19:51:08: 85.09% completed...
2017-06-15 19:51:08: 90.10% completed...
2017-06-15 19:51:08: 95.10% completed...
2017-06-15 19:51:09: 100.00% completed.
2017-06-15 19:51:09: End of calculation.
2017-06-15 19:51:09: Total calculation time: 9036 ms.
done
computing RF ...
done
comparing quartet score to original ...
Splits	Found	45	Total	45	Frac	1	MaxLnDf	0.328	Ratio	0.919	MaxBtDf	2.56
done
comparing local support to original ...
Splits	Found	45	Total	45	Frac	1	MaxLnDf	0.328	Ratio	0.919	MaxBtDf	2.56
done
All done!
