quartet scoring by astral ...
done
computing local support by astral ...
done
extracting occupancy ...
done
computing MS ...
TreeCmp version 1.0-b291

Active options:
Type of the analysis:  one-to-all comparison mode (-r)
Metrics:
  1. MatchingSplit (ms)
Input file: ../gene_trees/randprune/is.poly.gt.randprune.med.0.1.trees
Output file: ../results/is.poly.randprune.med.0.1.MS.dat
Additional options:
P - Prune compared trees if needed (trees can have different leaf sets).
-----
2017-06-14 00:56:59: Start of scanning input file: ../gene_trees/randprune/is.poly.gt.randprune.med.0.1.trees
2017-06-14 00:57:01: End of scanning input file: ../gene_trees/randprune/is.poly.gt.randprune.med.0.1.trees
2017-06-14 00:57:01: 1478 valid trees found in file: ../gene_trees/randprune/is.poly.gt.randprune.med.0.1.trees
2017-06-14 00:57:01: Start of calculation...please wait...
2017-06-14 00:57:01: 0.00% completed...
2017-06-14 00:57:02: 5.01% completed...
2017-06-14 00:57:02: 10.01% completed...
2017-06-14 00:57:02: 15.02% completed...
2017-06-14 00:57:03: 20.03% completed...
2017-06-14 00:57:03: 25.03% completed...
2017-06-14 00:57:03: 30.04% completed...
2017-06-14 00:57:03: 35.05% completed...
2017-06-14 00:57:03: 40.05% completed...
2017-06-14 00:57:04: 45.06% completed...
2017-06-14 00:57:04: 50.07% completed...
2017-06-14 00:57:04: 55.07% completed...
2017-06-14 00:57:04: 60.08% completed...
2017-06-14 00:57:04: 65.09% completed...
2017-06-14 00:57:04: 70.09% completed...
2017-06-14 00:57:04: 75.10% completed...
2017-06-14 00:57:05: 80.11% completed...
2017-06-14 00:57:05: 85.12% completed...
2017-06-14 00:57:05: 90.12% completed...
2017-06-14 00:57:05: 95.13% completed...
2017-06-14 00:57:05: 100.00% completed.
2017-06-14 00:57:05: End of calculation.
2017-06-14 00:57:05: Total calculation time: 4148 ms.
done
comparing quartet score to original ...
Splits	Found	141	Total	141	Frac	1	MaxLnDf	0.0587	Ratio	0.99	MaxBtDf	1.95
done
comparing local support to original ...
Splits	Found	141	Total	141	Frac	1	MaxLnDf	0.0587	Ratio	0.99	MaxBtDf	1.95
done
All done!
