filtering ...
Loading required package: BMS
/Users/uym2/my_gits/LongBranchFiltering/find_threshold_lkernel.R
done
quartet scoring by astral ...
done
computing local support by astral ...
done
extracting occupancy ...
done
computing MS ...
TreeCmp version 1.0-b291

Active options:
Type of the analysis:  one-to-all comparison mode (-r)
Metrics:
  1. MatchingSplit (ms)
Input file: ../gene_trees/LBF/is.poly.gt.LBF.sts.0.05.trees
Output file: ../results/is.poly.sts.0.05.MS.dat
Additional options:
P - Prune compared trees if needed (trees can have different leaf sets).
-----
2017-06-13 12:27:05: Start of scanning input file: ../gene_trees/LBF/is.poly.gt.LBF.sts.0.05.trees
2017-06-13 12:27:08: End of scanning input file: ../gene_trees/LBF/is.poly.gt.LBF.sts.0.05.trees
2017-06-13 12:27:08: 1478 valid trees found in file: ../gene_trees/LBF/is.poly.gt.LBF.sts.0.05.trees
2017-06-13 12:27:08: Start of calculation...please wait...
2017-06-13 12:27:08: 0.00% completed...
2017-06-13 12:27:09: 5.01% completed...
2017-06-13 12:27:09: 10.01% completed...
2017-06-13 12:27:09: 15.02% completed...
2017-06-13 12:27:10: 20.03% completed...
2017-06-13 12:27:10: 25.03% completed...
2017-06-13 12:27:11: 30.04% completed...
2017-06-13 12:27:12: 35.05% completed...
2017-06-13 12:27:12: 40.05% completed...
2017-06-13 12:27:13: 45.06% completed...
2017-06-13 12:27:14: 50.07% completed...
2017-06-13 12:27:15: 55.07% completed...
2017-06-13 12:27:15: 60.08% completed...
2017-06-13 12:27:15: 65.09% completed...
2017-06-13 12:27:16: 70.09% completed...
2017-06-13 12:27:16: 75.10% completed...
2017-06-13 12:27:17: 80.11% completed...
2017-06-13 12:27:17: 85.12% completed...
2017-06-13 12:27:18: 90.12% completed...
2017-06-13 12:27:18: 95.13% completed...
2017-06-13 12:27:19: 100.00% completed.
2017-06-13 12:27:19: End of calculation.
2017-06-13 12:27:19: Total calculation time: 11360 ms.
done
computing RF ...
done
comparing quartet score to original ...
Splits	Found	141	Total	141	Frac	1	MaxLnDf	0.119	Ratio	0.976	MaxBtDf	3.18
done
comparing local support to original ...
Splits	Found	141	Total	141	Frac	1	MaxLnDf	0.119	Ratio	0.976	MaxBtDf	3.18
done
All done!
