filtering ...
Loading required package: BMS
/Users/uym2/my_gits/LongBranchFiltering/find_threshold_kernel.R
done
quartet scoring by astral ...
done
computing local support by astral ...
done
extracting occupancy ...
done
computing MS ...
TreeCmp version 1.0-b291

Active options:
Type of the analysis:  one-to-all comparison mode (-r)
Metrics:
  1. MatchingSplit (ms)
Input file: ../gene_trees/LBF/is.poly.gt.LBF.medd.0.05.trees
Output file: ../results/is.poly.medd.0.05.MS.dat
Additional options:
P - Prune compared trees if needed (trees can have different leaf sets).
-----
2017-06-13 12:06:24: Start of scanning input file: ../gene_trees/LBF/is.poly.gt.LBF.medd.0.05.trees
2017-06-13 12:06:26: End of scanning input file: ../gene_trees/LBF/is.poly.gt.LBF.medd.0.05.trees
2017-06-13 12:06:26: 1478 valid trees found in file: ../gene_trees/LBF/is.poly.gt.LBF.medd.0.05.trees
2017-06-13 12:06:26: Start of calculation...please wait...
2017-06-13 12:06:26: 0.00% completed...
2017-06-13 12:06:27: 5.01% completed...
2017-06-13 12:06:28: 10.01% completed...
2017-06-13 12:06:28: 15.02% completed...
2017-06-13 12:06:28: 20.03% completed...
2017-06-13 12:06:28: 25.03% completed...
2017-06-13 12:06:29: 30.04% completed...
2017-06-13 12:06:29: 35.05% completed...
2017-06-13 12:06:29: 40.05% completed...
2017-06-13 12:06:30: 45.06% completed...
2017-06-13 12:06:30: 50.07% completed...
2017-06-13 12:06:31: 55.07% completed...
2017-06-13 12:06:31: 60.08% completed...
2017-06-13 12:06:31: 65.09% completed...
2017-06-13 12:06:31: 70.09% completed...
2017-06-13 12:06:32: 75.10% completed...
2017-06-13 12:06:32: 80.11% completed...
2017-06-13 12:06:32: 85.12% completed...
2017-06-13 12:06:33: 90.12% completed...
2017-06-13 12:06:33: 95.13% completed...
2017-06-13 12:06:33: 100.00% completed.
2017-06-13 12:06:33: End of calculation.
2017-06-13 12:06:33: Total calculation time: 7328 ms.
done
computing RF ...
done
comparing quartet score to original ...
Splits	Found	141	Total	141	Frac	1	MaxLnDf	0.00862	Ratio	0.999	MaxBtDf	0.21
done
comparing local support to original ...
Splits	Found	141	Total	141	Frac	1	MaxLnDf	0.00862	Ratio	0.999	MaxBtDf	0.21
done
All tasks finished successfully!
All done!
