filtering ...
Loading required package: BMS
/Users/uym2/my_gits/LongBranchFiltering/find_threshold_kernel.R
done
quartet scoring by astral ...
done
computing local support by astral ...
done
extracting occupancy ...
done
computing MS ...
TreeCmp version 1.0-b291

Active options:
Type of the analysis:  one-to-all comparison mode (-r)
Metrics:
  1. MatchingSplit (ms)
Input file: ../gene_trees/LBF/is.poly.gt.LBF.stsd.0.05.trees
Output file: ../results/is.poly.stsd.0.05.MS.dat
Additional options:
P - Prune compared trees if needed (trees can have different leaf sets).
-----
2017-06-13 12:53:35: Start of scanning input file: ../gene_trees/LBF/is.poly.gt.LBF.stsd.0.05.trees
2017-06-13 12:53:40: End of scanning input file: ../gene_trees/LBF/is.poly.gt.LBF.stsd.0.05.trees
2017-06-13 12:53:40: 1478 valid trees found in file: ../gene_trees/LBF/is.poly.gt.LBF.stsd.0.05.trees
2017-06-13 12:53:40: Start of calculation...please wait...
2017-06-13 12:53:40: 0.00% completed...
2017-06-13 12:53:42: 5.01% completed...
2017-06-13 12:53:43: 10.01% completed...
2017-06-13 12:53:44: 15.02% completed...
2017-06-13 12:53:45: 20.03% completed...
2017-06-13 12:53:47: 25.03% completed...
2017-06-13 12:53:48: 30.04% completed...
2017-06-13 12:53:49: 35.05% completed...
2017-06-13 12:53:50: 40.05% completed...
2017-06-13 12:53:51: 45.06% completed...
2017-06-13 12:53:52: 50.07% completed...
2017-06-13 12:53:53: 55.07% completed...
2017-06-13 12:53:54: 60.08% completed...
2017-06-13 12:53:55: 65.09% completed...
2017-06-13 12:53:56: 70.09% completed...
2017-06-13 12:53:57: 75.10% completed...
2017-06-13 12:53:58: 80.11% completed...
2017-06-13 12:53:59: 85.12% completed...
2017-06-13 12:54:00: 90.12% completed...
2017-06-13 12:54:01: 95.13% completed...
2017-06-13 12:54:02: 100.00% completed.
2017-06-13 12:54:02: End of calculation.
2017-06-13 12:54:02: Total calculation time: 22502 ms.
done
computing RF ...
done
comparing quartet score to original ...
Splits	Found	141	Total	141	Frac	1	MaxLnDf	0.129	Ratio	0.975	MaxBtDf	3.32
done
comparing local support to original ...
Splits	Found	141	Total	141	Frac	1	MaxLnDf	0.129	Ratio	0.975	MaxBtDf	3.32
done
All done!
