filtering ...
Loading required package: BMS
/Users/uym2/my_gits/LongBranchFiltering/find_threshold_lkernel.R
done
quartet scoring by astral ...
done
computing local support by astral ...
done
extracting occupancy ...
done
computing MS ...
TreeCmp version 1.0-b291

Active options:
Type of the analysis:  one-to-all comparison mode (-r)
Metrics:
  1. MatchingSplit (ms)
Input file: ../gene_trees/LBF/is.poly.gt.LBF.sts.0.025.trees
Output file: ../results/is.poly.sts.0.025.MS.dat
Additional options:
P - Prune compared trees if needed (trees can have different leaf sets).
-----
2017-06-13 12:26:36: Start of scanning input file: ../gene_trees/LBF/is.poly.gt.LBF.sts.0.025.trees
2017-06-13 12:26:37: End of scanning input file: ../gene_trees/LBF/is.poly.gt.LBF.sts.0.025.trees
2017-06-13 12:26:37: 1478 valid trees found in file: ../gene_trees/LBF/is.poly.gt.LBF.sts.0.025.trees
2017-06-13 12:26:37: Start of calculation...please wait...
2017-06-13 12:26:37: 0.00% completed...
2017-06-13 12:26:38: 5.01% completed...
2017-06-13 12:26:39: 10.01% completed...
2017-06-13 12:26:39: 15.02% completed...
2017-06-13 12:26:40: 20.03% completed...
2017-06-13 12:26:40: 25.03% completed...
2017-06-13 12:26:40: 30.04% completed...
2017-06-13 12:26:41: 35.05% completed...
2017-06-13 12:26:41: 40.05% completed...
2017-06-13 12:26:42: 45.06% completed...
2017-06-13 12:26:42: 50.07% completed...
2017-06-13 12:26:43: 55.07% completed...
2017-06-13 12:26:44: 60.08% completed...
2017-06-13 12:26:44: 65.09% completed...
2017-06-13 12:26:45: 70.09% completed...
2017-06-13 12:26:45: 75.10% completed...
2017-06-13 12:26:46: 80.11% completed...
2017-06-13 12:26:46: 85.12% completed...
2017-06-13 12:26:46: 90.12% completed...
2017-06-13 12:26:47: 95.13% completed...
2017-06-13 12:26:47: 100.00% completed.
2017-06-13 12:26:47: End of calculation.
2017-06-13 12:26:47: Total calculation time: 9667 ms.
done
computing RF ...
done
comparing quartet score to original ...
Splits	Found	141	Total	141	Frac	1	MaxLnDf	0.0828	Ratio	0.985	MaxBtDf	1.68
done
comparing local support to original ...
Splits	Found	141	Total	141	Frac	1	MaxLnDf	0.0828	Ratio	0.985	MaxBtDf	1.68
done
All done!
