filtering ...
Loading required package: BMS
/Users/uym2/my_gits/LongBranchFiltering/find_threshold_kernel.R
done
quartet scoring by astral ...
done
computing local support by astral ...
done
extracting occupancy ...
done
computing MS ...
TreeCmp version 1.0-b291

Active options:
Type of the analysis:  one-to-all comparison mode (-r)
Metrics:
  1. MatchingSplit (ms)
Input file: ../gene_trees/LBF/is.poly.gt.LBF.stsd.0.01.trees
Output file: ../results/is.poly.stsd.0.01.MS.dat
Additional options:
P - Prune compared trees if needed (trees can have different leaf sets).
-----
2017-06-13 13:31:43: Start of scanning input file: ../gene_trees/LBF/is.poly.gt.LBF.stsd.0.01.trees
2017-06-13 13:31:45: End of scanning input file: ../gene_trees/LBF/is.poly.gt.LBF.stsd.0.01.trees
2017-06-13 13:31:45: 1478 valid trees found in file: ../gene_trees/LBF/is.poly.gt.LBF.stsd.0.01.trees
2017-06-13 13:31:45: Start of calculation...please wait...
2017-06-13 13:31:45: 0.00% completed...
2017-06-13 13:31:45: 5.01% completed...
2017-06-13 13:31:46: 10.01% completed...
2017-06-13 13:31:46: 15.02% completed...
2017-06-13 13:31:46: 20.03% completed...
2017-06-13 13:31:46: 25.03% completed...
2017-06-13 13:31:47: 30.04% completed...
2017-06-13 13:31:47: 35.05% completed...
2017-06-13 13:31:47: 40.05% completed...
2017-06-13 13:31:47: 45.06% completed...
2017-06-13 13:31:47: 50.07% completed...
2017-06-13 13:31:48: 55.07% completed...
2017-06-13 13:31:48: 60.08% completed...
2017-06-13 13:31:48: 65.09% completed...
2017-06-13 13:31:48: 70.09% completed...
2017-06-13 13:31:49: 75.10% completed...
2017-06-13 13:31:49: 80.11% completed...
2017-06-13 13:31:49: 85.12% completed...
2017-06-13 13:31:49: 90.12% completed...
2017-06-13 13:31:49: 95.13% completed...
2017-06-13 13:31:50: 100.00% completed.
2017-06-13 13:31:50: End of calculation.
2017-06-13 13:31:50: Total calculation time: 4876 ms.
done
computing RF ...
done
comparing quartet score to original ...
Splits	Found	141	Total	141	Frac	1	MaxLnDf	0.0392	Ratio	0.992	MaxBtDf	1
done
comparing local support to original ...
Splits	Found	141	Total	141	Frac	1	MaxLnDf	0.0392	Ratio	0.992	MaxBtDf	1
done
All done!
