filtering ...
Loading required package: BMS
/Users/uym2/my_gits/LongBranchFiltering/find_threshold_lkernel.R
done
quartet scoring by astral ...
done
computing local support by astral ...
done
extracting occupancy ...
done
computing MS ...
TreeCmp version 1.0-b291

Active options:
Type of the analysis:  one-to-all comparison mode (-r)
Metrics:
  1. MatchingSplit (ms)
Input file: ../gene_trees/LBF/is.poly.gt.LBF.sts.0.075.trees
Output file: ../results/is.poly.sts.0.075.MS.dat
Additional options:
P - Prune compared trees if needed (trees can have different leaf sets).
-----
2017-06-13 12:26:43: Start of scanning input file: ../gene_trees/LBF/is.poly.gt.LBF.sts.0.075.trees
2017-06-13 12:26:45: End of scanning input file: ../gene_trees/LBF/is.poly.gt.LBF.sts.0.075.trees
2017-06-13 12:26:45: 1478 valid trees found in file: ../gene_trees/LBF/is.poly.gt.LBF.sts.0.075.trees
2017-06-13 12:26:45: Start of calculation...please wait...
2017-06-13 12:26:45: 0.00% completed...
2017-06-13 12:26:46: 5.01% completed...
2017-06-13 12:26:46: 10.01% completed...
2017-06-13 12:26:47: 15.02% completed...
2017-06-13 12:26:47: 20.03% completed...
2017-06-13 12:26:47: 25.03% completed...
2017-06-13 12:26:48: 30.04% completed...
2017-06-13 12:26:49: 35.05% completed...
2017-06-13 12:26:49: 40.05% completed...
2017-06-13 12:26:50: 45.06% completed...
2017-06-13 12:26:50: 50.07% completed...
2017-06-13 12:26:50: 55.07% completed...
2017-06-13 12:26:51: 60.08% completed...
2017-06-13 12:26:51: 65.09% completed...
2017-06-13 12:26:52: 70.09% completed...
2017-06-13 12:26:52: 75.10% completed...
2017-06-13 12:26:52: 80.11% completed...
2017-06-13 12:26:53: 85.12% completed...
2017-06-13 12:26:53: 90.12% completed...
2017-06-13 12:26:54: 95.13% completed...
2017-06-13 12:26:54: 100.00% completed.
2017-06-13 12:26:54: End of calculation.
2017-06-13 12:26:54: Total calculation time: 8943 ms.
done
computing RF ...
done
comparing quartet score to original ...
Splits	Found	141	Total	141	Frac	1	MaxLnDf	0.17	Ratio	0.967	MaxBtDf	3.91
done
comparing local support to original ...
Splits	Found	141	Total	141	Frac	1	MaxLnDf	0.17	Ratio	0.967	MaxBtDf	3.91
done
All done!
