filtering ...
/Users/uym2/my_gits/LongBranchFiltering/find_threshold_lnorm.R
done
quartet scoring by astral ...
done
computing local support by astral ...
done
extracting occupancy ...
done
computing MS ...
TreeCmp version 1.0-b291

Active options:
Type of the analysis:  one-to-all comparison mode (-r)
Metrics:
  1. MatchingSplit (ms)
Input file: ../gene_trees/LBF/is.poly.gt.LBF.ind.0.05.trees
Output file: ../results/is.poly.ind.0.05.MS.dat
Additional options:
P - Prune compared trees if needed (trees can have different leaf sets).
-----
2017-06-13 13:18:08: Start of scanning input file: ../gene_trees/LBF/is.poly.gt.LBF.ind.0.05.trees
2017-06-13 13:18:10: End of scanning input file: ../gene_trees/LBF/is.poly.gt.LBF.ind.0.05.trees
2017-06-13 13:18:10: 1478 valid trees found in file: ../gene_trees/LBF/is.poly.gt.LBF.ind.0.05.trees
2017-06-13 13:18:10: Start of calculation...please wait...
2017-06-13 13:18:10: 0.00% completed...
2017-06-13 13:18:10: 5.01% completed...
2017-06-13 13:18:11: 10.01% completed...
2017-06-13 13:18:11: 15.02% completed...
2017-06-13 13:18:12: 20.03% completed...
2017-06-13 13:18:12: 25.03% completed...
2017-06-13 13:18:12: 30.04% completed...
2017-06-13 13:18:12: 35.05% completed...
2017-06-13 13:18:13: 40.05% completed...
2017-06-13 13:18:13: 45.06% completed...
2017-06-13 13:18:13: 50.07% completed...
2017-06-13 13:18:14: 55.07% completed...
2017-06-13 13:18:14: 60.08% completed...
2017-06-13 13:18:14: 65.09% completed...
2017-06-13 13:18:15: 70.09% completed...
2017-06-13 13:18:15: 75.10% completed...
2017-06-13 13:18:16: 80.11% completed...
2017-06-13 13:18:17: 85.12% completed...
2017-06-13 13:18:17: 90.12% completed...
2017-06-13 13:18:17: 95.13% completed...
2017-06-13 13:18:18: 100.00% completed.
2017-06-13 13:18:18: End of calculation.
2017-06-13 13:18:18: Total calculation time: 8347 ms.
done
computing RF ...
done
comparing quartet score to original ...
Splits	Found	141	Total	141	Frac	1	MaxLnDf	0.507	Ratio	0.915	MaxBtDf	8.12
done
comparing local support to original ...
Splits	Found	141	Total	141	Frac	1	MaxLnDf	0.507	Ratio	0.915	MaxBtDf	8.12
done
All done!
