filtering ...
Loading required package: BMS
/Users/uym2/my_gits/LongBranchFiltering/find_threshold_kernel.R
done
quartet scoring by astral ...
done
computing local support by astral ...
done
extracting occupancy ...
done
computing MS ...
TreeCmp version 1.0-b291

Active options:
Type of the analysis:  one-to-all comparison mode (-r)
Metrics:
  1. MatchingSplit (ms)
Input file: ../gene_trees/LBF/is.poly.gt.LBF.medd.0.1.trees
Output file: ../results/is.poly.medd.0.1.MS.dat
Additional options:
P - Prune compared trees if needed (trees can have different leaf sets).
-----
2017-06-13 12:07:17: Start of scanning input file: ../gene_trees/LBF/is.poly.gt.LBF.medd.0.1.trees
2017-06-13 12:07:19: End of scanning input file: ../gene_trees/LBF/is.poly.gt.LBF.medd.0.1.trees
2017-06-13 12:07:19: 1478 valid trees found in file: ../gene_trees/LBF/is.poly.gt.LBF.medd.0.1.trees
2017-06-13 12:07:19: Start of calculation...please wait...
2017-06-13 12:07:19: 0.00% completed...
2017-06-13 12:07:20: 5.01% completed...
2017-06-13 12:07:20: 10.01% completed...
2017-06-13 12:07:21: 15.02% completed...
2017-06-13 12:07:21: 20.03% completed...
2017-06-13 12:07:22: 25.03% completed...
2017-06-13 12:07:22: 30.04% completed...
2017-06-13 12:07:22: 35.05% completed...
2017-06-13 12:07:23: 40.05% completed...
2017-06-13 12:07:23: 45.06% completed...
2017-06-13 12:07:23: 50.07% completed...
2017-06-13 12:07:24: 55.07% completed...
2017-06-13 12:07:24: 60.08% completed...
2017-06-13 12:07:24: 65.09% completed...
2017-06-13 12:07:24: 70.09% completed...
2017-06-13 12:07:25: 75.10% completed...
2017-06-13 12:07:25: 80.11% completed...
2017-06-13 12:07:25: 85.12% completed...
2017-06-13 12:07:26: 90.12% completed...
2017-06-13 12:07:26: 95.13% completed...
2017-06-13 12:07:26: 100.00% completed.
2017-06-13 12:07:26: End of calculation.
2017-06-13 12:07:26: Total calculation time: 7195 ms.
done
computing RF ...
done
comparing quartet score to original ...
Splits	Found	141	Total	141	Frac	1	MaxLnDf	0.00862	Ratio	0.998	MaxBtDf	0.21
done
comparing local support to original ...
Splits	Found	141	Total	141	Frac	1	MaxLnDf	0.00862	Ratio	0.998	MaxBtDf	0.21
done
All tasks finished successfully!
All done!
