filtering ...
/Users/uym2/my_gits/LongBranchFiltering/find_threshold_lnorm.R
done
quartet scoring by astral ...
done
computing local support by astral ...
done
extracting occupancy ...
done
computing MS ...
TreeCmp version 1.0-b291

Active options:
Type of the analysis:  one-to-all comparison mode (-r)
Metrics:
  1. MatchingSplit (ms)
Input file: ../gene_trees/LBF/is.poly.gt.LBF.medl.0.1.trees
Output file: ../results/is.poly.medl.0.1.MS.dat
Additional options:
P - Prune compared trees if needed (trees can have different leaf sets).
-----
2017-06-13 13:41:08: Start of scanning input file: ../gene_trees/LBF/is.poly.gt.LBF.medl.0.1.trees
2017-06-13 13:41:10: End of scanning input file: ../gene_trees/LBF/is.poly.gt.LBF.medl.0.1.trees
2017-06-13 13:41:10: 1478 valid trees found in file: ../gene_trees/LBF/is.poly.gt.LBF.medl.0.1.trees
2017-06-13 13:41:10: Start of calculation...please wait...
2017-06-13 13:41:10: 0.00% completed...
2017-06-13 13:41:11: 5.01% completed...
2017-06-13 13:41:12: 10.01% completed...
2017-06-13 13:41:12: 15.02% completed...
2017-06-13 13:41:12: 20.03% completed...
2017-06-13 13:41:13: 25.03% completed...
2017-06-13 13:41:13: 30.04% completed...
2017-06-13 13:41:13: 35.05% completed...
2017-06-13 13:41:14: 40.05% completed...
2017-06-13 13:41:14: 45.06% completed...
2017-06-13 13:41:14: 50.07% completed...
2017-06-13 13:41:15: 55.07% completed...
2017-06-13 13:41:15: 60.08% completed...
2017-06-13 13:41:16: 65.09% completed...
2017-06-13 13:41:16: 70.09% completed...
2017-06-13 13:41:16: 75.10% completed...
2017-06-13 13:41:17: 80.11% completed...
2017-06-13 13:41:17: 85.12% completed...
2017-06-13 13:41:18: 90.12% completed...
2017-06-13 13:41:19: 95.13% completed...
2017-06-13 13:41:19: 100.00% completed.
2017-06-13 13:41:19: End of calculation.
2017-06-13 13:41:19: Total calculation time: 8898 ms.
done
computing RF ...
done
comparing quartet score to original ...
Splits	Found	141	Total	141	Frac	1	MaxLnDf	0.441	Ratio	0.908	MaxBtDf	11.7
done
comparing local support to original ...
Splits	Found	141	Total	141	Frac	1	MaxLnDf	0.441	Ratio	0.908	MaxBtDf	11.7
done
All done!
