filtering ...
/Users/uym2/my_gits/LongBranchFiltering/find_threshold_lnorm.R
done
quartet scoring by astral ...
done
computing local support by astral ...
done
extracting occupancy ...
done
computing MS ...
TreeCmp version 1.0-b291

Active options:
Type of the analysis:  one-to-all comparison mode (-r)
Metrics:
  1. MatchingSplit (ms)
Input file: ../gene_trees/LBF/is.poly.gt.LBF.ind.0.01.trees
Output file: ../results/is.poly.ind.0.01.MS.dat
Additional options:
P - Prune compared trees if needed (trees can have different leaf sets).
-----
2017-06-13 13:17:48: Start of scanning input file: ../gene_trees/LBF/is.poly.gt.LBF.ind.0.01.trees
2017-06-13 13:17:52: End of scanning input file: ../gene_trees/LBF/is.poly.gt.LBF.ind.0.01.trees
2017-06-13 13:17:52: 1478 valid trees found in file: ../gene_trees/LBF/is.poly.gt.LBF.ind.0.01.trees
2017-06-13 13:17:52: Start of calculation...please wait...
2017-06-13 13:17:52: 0.00% completed...
2017-06-13 13:17:53: 5.01% completed...
2017-06-13 13:17:54: 10.01% completed...
2017-06-13 13:17:54: 15.02% completed...
2017-06-13 13:17:55: 20.03% completed...
2017-06-13 13:17:55: 25.03% completed...
2017-06-13 13:17:55: 30.04% completed...
2017-06-13 13:17:56: 35.05% completed...
2017-06-13 13:17:56: 40.05% completed...
2017-06-13 13:17:57: 45.06% completed...
2017-06-13 13:17:57: 50.07% completed...
2017-06-13 13:17:58: 55.07% completed...
2017-06-13 13:17:58: 60.08% completed...
2017-06-13 13:17:58: 65.09% completed...
2017-06-13 13:17:59: 70.09% completed...
2017-06-13 13:17:59: 75.10% completed...
2017-06-13 13:18:00: 80.11% completed...
2017-06-13 13:18:00: 85.12% completed...
2017-06-13 13:18:00: 90.12% completed...
2017-06-13 13:18:01: 95.13% completed...
2017-06-13 13:18:01: 100.00% completed.
2017-06-13 13:18:01: End of calculation.
2017-06-13 13:18:01: Total calculation time: 9394 ms.
done
computing RF ...
done
comparing quartet score to original ...
Splits	Found	141	Total	141	Frac	1	MaxLnDf	0.441	Ratio	0.937	MaxBtDf	6.01
done
comparing local support to original ...
Splits	Found	141	Total	141	Frac	1	MaxLnDf	0.441	Ratio	0.937	MaxBtDf	6.01
done
All done!
