filtering ...
/Users/uym2/my_gits/LongBranchFiltering/find_threshold_lnorm.R
done
quartet scoring by astral ...
done
computing local support by astral ...
done
extracting occupancy ...
done
computing MS ...
TreeCmp version 1.0-b291

Active options:
Type of the analysis:  one-to-all comparison mode (-r)
Metrics:
  1. MatchingSplit (ms)
Input file: ../gene_trees/LBF/is.poly.gt.LBF.medl.0.01.trees
Output file: ../results/is.poly.medl.0.01.MS.dat
Additional options:
P - Prune compared trees if needed (trees can have different leaf sets).
-----
2017-06-13 13:40:44: Start of scanning input file: ../gene_trees/LBF/is.poly.gt.LBF.medl.0.01.trees
2017-06-13 13:40:47: End of scanning input file: ../gene_trees/LBF/is.poly.gt.LBF.medl.0.01.trees
2017-06-13 13:40:47: 1478 valid trees found in file: ../gene_trees/LBF/is.poly.gt.LBF.medl.0.01.trees
2017-06-13 13:40:47: Start of calculation...please wait...
2017-06-13 13:40:47: 0.00% completed...
2017-06-13 13:40:48: 5.01% completed...
2017-06-13 13:40:49: 10.01% completed...
2017-06-13 13:40:50: 15.02% completed...
2017-06-13 13:40:51: 20.03% completed...
2017-06-13 13:40:51: 25.03% completed...
2017-06-13 13:40:52: 30.04% completed...
2017-06-13 13:40:52: 35.05% completed...
2017-06-13 13:40:53: 40.05% completed...
2017-06-13 13:40:53: 45.06% completed...
2017-06-13 13:40:54: 50.07% completed...
2017-06-13 13:40:54: 55.07% completed...
2017-06-13 13:40:54: 60.08% completed...
2017-06-13 13:40:55: 65.09% completed...
2017-06-13 13:40:55: 70.09% completed...
2017-06-13 13:40:56: 75.10% completed...
2017-06-13 13:40:56: 80.11% completed...
2017-06-13 13:40:57: 85.12% completed...
2017-06-13 13:40:57: 90.12% completed...
2017-06-13 13:40:58: 95.13% completed...
2017-06-13 13:40:58: 100.00% completed.
2017-06-13 13:40:58: End of calculation.
2017-06-13 13:40:58: Total calculation time: 10949 ms.
done
computing RF ...
done
comparing quartet score to original ...
Splits	Found	141	Total	141	Frac	1	MaxLnDf	0.432	Ratio	0.908	MaxBtDf	9.29
done
comparing local support to original ...
Splits	Found	141	Total	141	Frac	1	MaxLnDf	0.432	Ratio	0.908	MaxBtDf	9.29
done
All done!
