filtering ...
Loading required package: BMS
/Users/uym2/my_gits/LongBranchFiltering/find_threshold_kernel.R
done
quartet scoring by astral ...
done
computing local support by astral ...
done
extracting occupancy ...
done
computing MS ...
TreeCmp version 1.0-b291

Active options:
Type of the analysis:  one-to-all comparison mode (-r)
Metrics:
  1. MatchingSplit (ms)
Input file: ../gene_trees/LBF/is.poly.gt.LBF.stsd.0.1.trees
Output file: ../results/is.poly.stsd.0.1.MS.dat
Additional options:
P - Prune compared trees if needed (trees can have different leaf sets).
-----
2017-06-13 12:54:34: Start of scanning input file: ../gene_trees/LBF/is.poly.gt.LBF.stsd.0.1.trees
2017-06-13 12:54:39: End of scanning input file: ../gene_trees/LBF/is.poly.gt.LBF.stsd.0.1.trees
2017-06-13 12:54:39: 1478 valid trees found in file: ../gene_trees/LBF/is.poly.gt.LBF.stsd.0.1.trees
2017-06-13 12:54:39: Start of calculation...please wait...
2017-06-13 12:54:39: 0.00% completed...
2017-06-13 12:54:41: 5.01% completed...
2017-06-13 12:54:42: 10.01% completed...
2017-06-13 12:54:43: 15.02% completed...
2017-06-13 12:54:44: 20.03% completed...
2017-06-13 12:54:45: 25.03% completed...
2017-06-13 12:54:46: 30.04% completed...
2017-06-13 12:54:47: 35.05% completed...
2017-06-13 12:54:48: 40.05% completed...
2017-06-13 12:54:49: 45.06% completed...
2017-06-13 12:54:50: 50.07% completed...
2017-06-13 12:54:51: 55.07% completed...
2017-06-13 12:54:51: 60.08% completed...
2017-06-13 12:54:53: 65.09% completed...
2017-06-13 12:54:53: 70.09% completed...
2017-06-13 12:54:54: 75.10% completed...
2017-06-13 12:54:55: 80.11% completed...
2017-06-13 12:54:56: 85.12% completed...
2017-06-13 12:54:57: 90.12% completed...
2017-06-13 12:54:58: 95.13% completed...
2017-06-13 12:54:59: 100.00% completed.
2017-06-13 12:54:59: End of calculation.
2017-06-13 12:54:59: Total calculation time: 20100 ms.
done
computing RF ...
done
comparing quartet score to original ...
Splits	Found	141	Total	141	Frac	1	MaxLnDf	0.19	Ratio	0.964	MaxBtDf	4.14
done
comparing local support to original ...
Splits	Found	141	Total	141	Frac	1	MaxLnDf	0.19	Ratio	0.964	MaxBtDf	4.14
done
All done!
