quartet scoring by astral ...
done
computing local support by astral ...
done
extracting occupancy ...
done
computing MS ...
TreeCmp version 1.0-b291

Active options:
Type of the analysis:  one-to-all comparison mode (-r)
Metrics:
  1. MatchingSplit (ms)
Input file: ../gene_trees/randprune/is.poly.gt.randprune.med.0.05.trees
Output file: ../results/is.poly.randprune.med.0.05.MS.dat
Additional options:
P - Prune compared trees if needed (trees can have different leaf sets).
-----
2017-06-14 00:56:53: Start of scanning input file: ../gene_trees/randprune/is.poly.gt.randprune.med.0.05.trees
2017-06-14 00:56:55: End of scanning input file: ../gene_trees/randprune/is.poly.gt.randprune.med.0.05.trees
2017-06-14 00:56:55: 1478 valid trees found in file: ../gene_trees/randprune/is.poly.gt.randprune.med.0.05.trees
2017-06-14 00:56:55: Start of calculation...please wait...
2017-06-14 00:56:55: 0.00% completed...
2017-06-14 00:56:56: 5.01% completed...
2017-06-14 00:56:57: 10.01% completed...
2017-06-14 00:56:57: 15.02% completed...
2017-06-14 00:56:57: 20.03% completed...
2017-06-14 00:56:58: 25.03% completed...
2017-06-14 00:56:58: 30.04% completed...
2017-06-14 00:56:58: 35.05% completed...
2017-06-14 00:56:59: 40.05% completed...
2017-06-14 00:56:59: 45.06% completed...
2017-06-14 00:57:00: 50.07% completed...
2017-06-14 00:57:00: 55.07% completed...
2017-06-14 00:57:00: 60.08% completed...
2017-06-14 00:57:00: 65.09% completed...
2017-06-14 00:57:01: 70.09% completed...
2017-06-14 00:57:01: 75.10% completed...
2017-06-14 00:57:01: 80.11% completed...
2017-06-14 00:57:01: 85.12% completed...
2017-06-14 00:57:02: 90.12% completed...
2017-06-14 00:57:02: 95.13% completed...
2017-06-14 00:57:02: 100.00% completed.
2017-06-14 00:57:02: End of calculation.
2017-06-14 00:57:02: Total calculation time: 7276 ms.
done
comparing quartet score to original ...
Splits	Found	141	Total	141	Frac	1	MaxLnDf	0.0636	Ratio	0.993	MaxBtDf	0.68
done
comparing local support to original ...
Splits	Found	141	Total	141	Frac	1	MaxLnDf	0.0636	Ratio	0.993	MaxBtDf	0.68
done
All done!
