filtering ...
/Users/uym2/my_gits/LongBranchFiltering/find_threshold_lnorm.R
done
quartet scoring by astral ...
done
computing local support by astral ...
done
extracting occupancy ...
done
computing MS ...
TreeCmp version 1.0-b291

Active options:
Type of the analysis:  one-to-all comparison mode (-r)
Metrics:
  1. MatchingSplit (ms)
Input file: ../gene_trees/LBF/is.poly.gt.LBF.ind.0.075.trees
Output file: ../results/is.poly.ind.0.075.MS.dat
Additional options:
P - Prune compared trees if needed (trees can have different leaf sets).
-----
2017-06-13 13:18:05: Start of scanning input file: ../gene_trees/LBF/is.poly.gt.LBF.ind.0.075.trees
2017-06-13 13:18:07: End of scanning input file: ../gene_trees/LBF/is.poly.gt.LBF.ind.0.075.trees
2017-06-13 13:18:07: 1478 valid trees found in file: ../gene_trees/LBF/is.poly.gt.LBF.ind.0.075.trees
2017-06-13 13:18:07: Start of calculation...please wait...
2017-06-13 13:18:07: 0.00% completed...
2017-06-13 13:18:08: 5.01% completed...
2017-06-13 13:18:08: 10.01% completed...
2017-06-13 13:18:09: 15.02% completed...
2017-06-13 13:18:09: 20.03% completed...
2017-06-13 13:18:09: 25.03% completed...
2017-06-13 13:18:10: 30.04% completed...
2017-06-13 13:18:10: 35.05% completed...
2017-06-13 13:18:11: 40.05% completed...
2017-06-13 13:18:11: 45.06% completed...
2017-06-13 13:18:11: 50.07% completed...
2017-06-13 13:18:12: 55.07% completed...
2017-06-13 13:18:12: 60.08% completed...
2017-06-13 13:18:12: 65.09% completed...
2017-06-13 13:18:12: 70.09% completed...
2017-06-13 13:18:13: 75.10% completed...
2017-06-13 13:18:13: 80.11% completed...
2017-06-13 13:18:13: 85.12% completed...
2017-06-13 13:18:14: 90.12% completed...
2017-06-13 13:18:14: 95.13% completed...
2017-06-13 13:18:14: 100.00% completed.
2017-06-13 13:18:14: End of calculation.
2017-06-13 13:18:14: Total calculation time: 7690 ms.
done
computing RF ...
done
comparing quartet score to original ...
Splits	Found	141	Total	141	Frac	1	MaxLnDf	0.402	Ratio	0.914	MaxBtDf	13.2
done
comparing local support to original ...
Splits	Found	141	Total	141	Frac	1	MaxLnDf	0.402	Ratio	0.914	MaxBtDf	13.2
done
All done!
