filtering ...
Loading required package: BMS
/Users/uym2/my_gits/LongBranchFiltering/find_threshold_lkernel.R
done
quartet scoring by astral ...
done
computing local support by astral ...
done
extracting occupancy ...
done
computing MS ...
TreeCmp version 1.0-b291

Active options:
Type of the analysis:  one-to-all comparison mode (-r)
Metrics:
  1. MatchingSplit (ms)
Input file: ../gene_trees/LBF/is.poly.gt.LBF.sts.0.1.trees
Output file: ../results/is.poly.sts.0.1.MS.dat
Additional options:
P - Prune compared trees if needed (trees can have different leaf sets).
-----
2017-06-13 13:34:06: Start of scanning input file: ../gene_trees/LBF/is.poly.gt.LBF.sts.0.1.trees
2017-06-13 13:34:09: End of scanning input file: ../gene_trees/LBF/is.poly.gt.LBF.sts.0.1.trees
2017-06-13 13:34:09: 1478 valid trees found in file: ../gene_trees/LBF/is.poly.gt.LBF.sts.0.1.trees
2017-06-13 13:34:09: Start of calculation...please wait...
2017-06-13 13:34:09: 0.00% completed...
2017-06-13 13:34:11: 5.01% completed...
2017-06-13 13:34:12: 10.01% completed...
2017-06-13 13:34:12: 15.02% completed...
2017-06-13 13:34:13: 20.03% completed...
2017-06-13 13:34:14: 25.03% completed...
2017-06-13 13:34:14: 30.04% completed...
2017-06-13 13:34:15: 35.05% completed...
2017-06-13 13:34:15: 40.05% completed...
2017-06-13 13:34:16: 45.06% completed...
2017-06-13 13:34:16: 50.07% completed...
2017-06-13 13:34:17: 55.07% completed...
2017-06-13 13:34:18: 60.08% completed...
2017-06-13 13:34:18: 65.09% completed...
2017-06-13 13:34:19: 70.09% completed...
2017-06-13 13:34:19: 75.10% completed...
2017-06-13 13:34:20: 80.11% completed...
2017-06-13 13:34:21: 85.12% completed...
2017-06-13 13:34:21: 90.12% completed...
2017-06-13 13:34:22: 95.13% completed...
2017-06-13 13:34:23: 100.00% completed.
2017-06-13 13:34:23: End of calculation.
2017-06-13 13:34:23: Total calculation time: 13498 ms.
done
computing RF ...
done
comparing quartet score to original ...
Splits	Found	141	Total	141	Frac	1	MaxLnDf	0.173	Ratio	0.96	MaxBtDf	4.36
done
comparing local support to original ...
Splits	Found	141	Total	141	Frac	1	MaxLnDf	0.173	Ratio	0.96	MaxBtDf	4.36
done
All done!
