filtering ...
Loading required package: BMS
/Users/uym2/my_gits/LongBranchFiltering/find_threshold_lkernel.R
done
quartet scoring by astral ...
done
computing local support by astral ...
done
extracting occupancy ...
done
computing MS ...
TreeCmp version 1.0-b291

Active options:
Type of the analysis:  one-to-all comparison mode (-r)
Metrics:
  1. MatchingSplit (ms)
Input file: ../gene_trees/LBF/is.poly.gt.LBF.sts.0.01.trees
Output file: ../results/is.poly.sts.0.01.MS.dat
Additional options:
P - Prune compared trees if needed (trees can have different leaf sets).
-----
2017-06-13 13:33:22: Start of scanning input file: ../gene_trees/LBF/is.poly.gt.LBF.sts.0.01.trees
2017-06-13 13:33:23: End of scanning input file: ../gene_trees/LBF/is.poly.gt.LBF.sts.0.01.trees
2017-06-13 13:33:23: 1478 valid trees found in file: ../gene_trees/LBF/is.poly.gt.LBF.sts.0.01.trees
2017-06-13 13:33:23: Start of calculation...please wait...
2017-06-13 13:33:23: 0.00% completed...
2017-06-13 13:33:24: 5.01% completed...
2017-06-13 13:33:24: 10.01% completed...
2017-06-13 13:33:25: 15.02% completed...
2017-06-13 13:33:25: 20.03% completed...
2017-06-13 13:33:26: 25.03% completed...
2017-06-13 13:33:26: 30.04% completed...
2017-06-13 13:33:26: 35.05% completed...
2017-06-13 13:33:27: 40.05% completed...
2017-06-13 13:33:27: 45.06% completed...
2017-06-13 13:33:27: 50.07% completed...
2017-06-13 13:33:27: 55.07% completed...
2017-06-13 13:33:28: 60.08% completed...
2017-06-13 13:33:28: 65.09% completed...
2017-06-13 13:33:28: 70.09% completed...
2017-06-13 13:33:29: 75.10% completed...
2017-06-13 13:33:29: 80.11% completed...
2017-06-13 13:33:29: 85.12% completed...
2017-06-13 13:33:29: 90.12% completed...
2017-06-13 13:33:30: 95.13% completed...
2017-06-13 13:33:30: 100.00% completed.
2017-06-13 13:33:30: End of calculation.
2017-06-13 13:33:30: Total calculation time: 6905 ms.
done
computing RF ...
done
comparing quartet score to original ...
Splits	Found	141	Total	141	Frac	1	MaxLnDf	0.038	Ratio	0.993	MaxBtDf	0.92
done
comparing local support to original ...
Splits	Found	141	Total	141	Frac	1	MaxLnDf	0.038	Ratio	0.993	MaxBtDf	0.92
done
All done!
