quartet scoring by astral ...
done
computing local support by astral ...
done
extracting occupancy ...
done
computing MS ...
TreeCmp version 1.0-b291

Active options:
Type of the analysis:  one-to-all comparison mode (-r)
Metrics:
  1. MatchingSplit (ms)
Input file: ../gene_trees/randprune/is.poly.gt.randprune.med.0.01.trees
Output file: ../results/is.poly.randprune.med.0.01.MS.dat
Additional options:
P - Prune compared trees if needed (trees can have different leaf sets).
-----
2017-06-14 00:56:30: Start of scanning input file: ../gene_trees/randprune/is.poly.gt.randprune.med.0.01.trees
2017-06-14 00:56:34: End of scanning input file: ../gene_trees/randprune/is.poly.gt.randprune.med.0.01.trees
2017-06-14 00:56:34: 1478 valid trees found in file: ../gene_trees/randprune/is.poly.gt.randprune.med.0.01.trees
2017-06-14 00:56:34: Start of calculation...please wait...
2017-06-14 00:56:34: 0.00% completed...
2017-06-14 00:56:35: 5.01% completed...
2017-06-14 00:56:36: 10.01% completed...
2017-06-14 00:56:37: 15.02% completed...
2017-06-14 00:56:37: 20.03% completed...
2017-06-14 00:56:38: 25.03% completed...
2017-06-14 00:56:38: 30.04% completed...
2017-06-14 00:56:38: 35.05% completed...
2017-06-14 00:56:39: 40.05% completed...
2017-06-14 00:56:39: 45.06% completed...
2017-06-14 00:56:40: 50.07% completed...
2017-06-14 00:56:41: 55.07% completed...
2017-06-14 00:56:41: 60.08% completed...
2017-06-14 00:56:42: 65.09% completed...
2017-06-14 00:56:42: 70.09% completed...
2017-06-14 00:56:43: 75.10% completed...
2017-06-14 00:56:43: 80.11% completed...
2017-06-14 00:56:44: 85.12% completed...
2017-06-14 00:56:44: 90.12% completed...
2017-06-14 00:56:45: 95.13% completed...
2017-06-14 00:56:46: 100.00% completed.
2017-06-14 00:56:46: End of calculation.
2017-06-14 00:56:46: Total calculation time: 11865 ms.
done
comparing quartet score to original ...
Splits	Found	141	Total	141	Frac	1	MaxLnDf	0.029	Ratio	0.998	MaxBtDf	0.53
done
comparing local support to original ...
Splits	Found	141	Total	141	Frac	1	MaxLnDf	0.029	Ratio	0.998	MaxBtDf	0.53
done
All done!
