quartet scoring by astral ...
done
computing local support by astral ...
done
extracting occupancy ...
done
computing MS ...
TreeCmp version 1.0-b291

Active options:
Type of the analysis:  one-to-all comparison mode (-r)
Metrics:
  1. MatchingSplit (ms)
Input file: ../gene_trees/randprune/is.poly.gt.randprune.med.0.025.trees
Output file: ../results/is.poly.randprune.med.0.025.MS.dat
Additional options:
P - Prune compared trees if needed (trees can have different leaf sets).
-----
2017-06-14 00:56:48: Start of scanning input file: ../gene_trees/randprune/is.poly.gt.randprune.med.0.025.trees
2017-06-14 00:56:51: End of scanning input file: ../gene_trees/randprune/is.poly.gt.randprune.med.0.025.trees
2017-06-14 00:56:51: 1478 valid trees found in file: ../gene_trees/randprune/is.poly.gt.randprune.med.0.025.trees
2017-06-14 00:56:51: Start of calculation...please wait...
2017-06-14 00:56:51: 0.00% completed...
2017-06-14 00:56:52: 5.01% completed...
2017-06-14 00:56:52: 10.01% completed...
2017-06-14 00:56:53: 15.02% completed...
2017-06-14 00:56:53: 20.03% completed...
2017-06-14 00:56:54: 25.03% completed...
2017-06-14 00:56:54: 30.04% completed...
2017-06-14 00:56:54: 35.05% completed...
2017-06-14 00:56:55: 40.05% completed...
2017-06-14 00:56:55: 45.06% completed...
2017-06-14 00:56:55: 50.07% completed...
2017-06-14 00:56:56: 55.07% completed...
2017-06-14 00:56:56: 60.08% completed...
2017-06-14 00:56:57: 65.09% completed...
2017-06-14 00:56:57: 70.09% completed...
2017-06-14 00:56:57: 75.10% completed...
2017-06-14 00:56:58: 80.11% completed...
2017-06-14 00:56:58: 85.12% completed...
2017-06-14 00:56:58: 90.12% completed...
2017-06-14 00:56:59: 95.13% completed...
2017-06-14 00:56:59: 100.00% completed.
2017-06-14 00:56:59: End of calculation.
2017-06-14 00:56:59: Total calculation time: 8573 ms.
done
comparing quartet score to original ...
Splits	Found	141	Total	141	Frac	1	MaxLnDf	0.0261	Ratio	0.997	MaxBtDf	0.49
done
comparing local support to original ...
Splits	Found	141	Total	141	Frac	1	MaxLnDf	0.0261	Ratio	0.997	MaxBtDf	0.49
done
All done!
