filtering ...
Loading required package: BMS
/Users/uym2/my_gits/LongBranchFiltering/find_threshold_kernel.R
done
quartet scoring by astral ...
done
computing local support by astral ...
done
extracting occupancy ...
done
computing MS ...
TreeCmp version 1.0-b291

Active options:
Type of the analysis:  one-to-all comparison mode (-r)
Metrics:
  1. MatchingSplit (ms)
Input file: ../gene_trees/LBF/is.poly.gt.LBF.stsd.0.025.trees
Output file: ../results/is.poly.stsd.0.025.MS.dat
Additional options:
P - Prune compared trees if needed (trees can have different leaf sets).
-----
2017-06-13 12:53:22: Start of scanning input file: ../gene_trees/LBF/is.poly.gt.LBF.stsd.0.025.trees
2017-06-13 12:53:27: End of scanning input file: ../gene_trees/LBF/is.poly.gt.LBF.stsd.0.025.trees
2017-06-13 12:53:27: 1478 valid trees found in file: ../gene_trees/LBF/is.poly.gt.LBF.stsd.0.025.trees
2017-06-13 12:53:27: Start of calculation...please wait...
2017-06-13 12:53:27: 0.00% completed...
2017-06-13 12:53:29: 5.01% completed...
2017-06-13 12:53:30: 10.01% completed...
2017-06-13 12:53:31: 15.02% completed...
2017-06-13 12:53:31: 20.03% completed...
2017-06-13 12:53:32: 25.03% completed...
2017-06-13 12:53:33: 30.04% completed...
2017-06-13 12:53:34: 35.05% completed...
2017-06-13 12:53:35: 40.05% completed...
2017-06-13 12:53:36: 45.06% completed...
2017-06-13 12:53:37: 50.07% completed...
2017-06-13 12:53:38: 55.07% completed...
2017-06-13 12:53:38: 60.08% completed...
2017-06-13 12:53:39: 65.09% completed...
2017-06-13 12:53:41: 70.09% completed...
2017-06-13 12:53:42: 75.10% completed...
2017-06-13 12:53:43: 80.11% completed...
2017-06-13 12:53:44: 85.12% completed...
2017-06-13 12:53:45: 90.12% completed...
2017-06-13 12:53:46: 95.13% completed...
2017-06-13 12:53:47: 100.00% completed.
2017-06-13 12:53:47: End of calculation.
2017-06-13 12:53:47: Total calculation time: 20153 ms.
done
computing RF ...
done
comparing quartet score to original ...
Splits	Found	141	Total	141	Frac	1	MaxLnDf	0.0882	Ratio	0.984	MaxBtDf	1.8
done
comparing local support to original ...
Splits	Found	141	Total	141	Frac	1	MaxLnDf	0.0882	Ratio	0.984	MaxBtDf	1.8
done
All done!
