filtering ...
Loading required package: BMS
/Users/uym2/my_gits/LongBranchFiltering/find_threshold_kernel.R
done
quartet scoring by astral ...
done
computing local support by astral ...
done
extracting occupancy ...
done
computing MS ...
TreeCmp version 1.0-b291

Active options:
Type of the analysis:  one-to-all comparison mode (-r)
Metrics:
  1. MatchingSplit (ms)
Input file: ../gene_trees/LBF/is.poly.gt.LBF.medd.0.01.trees
Output file: ../results/is.poly.medd.0.01.MS.dat
Additional options:
P - Prune compared trees if needed (trees can have different leaf sets).
-----
2017-06-13 11:54:48: Start of scanning input file: ../gene_trees/LBF/is.poly.gt.LBF.medd.0.01.trees
2017-06-13 11:54:49: End of scanning input file: ../gene_trees/LBF/is.poly.gt.LBF.medd.0.01.trees
2017-06-13 11:54:49: 1478 valid trees found in file: ../gene_trees/LBF/is.poly.gt.LBF.medd.0.01.trees
2017-06-13 11:54:49: Start of calculation...please wait...
2017-06-13 11:54:49: 0.00% completed...
2017-06-13 11:54:49: 5.01% completed...
2017-06-13 11:54:49: 10.01% completed...
2017-06-13 11:54:50: 15.02% completed...
2017-06-13 11:54:50: 20.03% completed...
2017-06-13 11:54:50: 25.03% completed...
2017-06-13 11:54:50: 30.04% completed...
2017-06-13 11:54:50: 35.05% completed...
2017-06-13 11:54:50: 40.05% completed...
2017-06-13 11:54:50: 45.06% completed...
2017-06-13 11:54:51: 50.07% completed...
2017-06-13 11:54:51: 55.07% completed...
2017-06-13 11:54:51: 60.08% completed...
2017-06-13 11:54:51: 65.09% completed...
2017-06-13 11:54:51: 70.09% completed...
2017-06-13 11:54:51: 75.10% completed...
2017-06-13 11:54:52: 80.11% completed...
2017-06-13 11:54:52: 85.12% completed...
2017-06-13 11:54:52: 90.12% completed...
2017-06-13 11:54:52: 95.13% completed...
2017-06-13 11:54:52: 100.00% completed.
2017-06-13 11:54:52: End of calculation.
2017-06-13 11:54:52: Total calculation time: 3324 ms.
done
computing RF ...
done
comparing quartet score to original ...
Splits	Found	141	Total	141	Frac	1	MaxLnDf	0.00862	Ratio	0.999	MaxBtDf	0.21
done
comparing local support to original ...
Splits	Found	141	Total	141	Frac	1	MaxLnDf	0.00862	Ratio	0.999	MaxBtDf	0.21
done
All tasks finished successfully!
All done!
