filtering ...
Loading required package: BMS
/Users/uym2/my_gits/LongBranchFiltering/find_threshold_kernel.R
done
quartet scoring by astral ...
done
computing local support by astral ...
done
extracting occupancy ...
done
computing MS ...
TreeCmp version 1.0-b291

Active options:
Type of the analysis:  one-to-all comparison mode (-r)
Metrics:
  1. MatchingSplit (ms)
Input file: ../gene_trees/LBF/is.poly.gt.LBF.stsd.0.075.trees
Output file: ../results/is.poly.stsd.0.075.MS.dat
Additional options:
P - Prune compared trees if needed (trees can have different leaf sets).
-----
2017-06-13 12:54:00: Start of scanning input file: ../gene_trees/LBF/is.poly.gt.LBF.stsd.0.075.trees
2017-06-13 12:54:04: End of scanning input file: ../gene_trees/LBF/is.poly.gt.LBF.stsd.0.075.trees
2017-06-13 12:54:04: 1478 valid trees found in file: ../gene_trees/LBF/is.poly.gt.LBF.stsd.0.075.trees
2017-06-13 12:54:04: Start of calculation...please wait...
2017-06-13 12:54:04: 0.00% completed...
2017-06-13 12:54:06: 5.01% completed...
2017-06-13 12:54:08: 10.01% completed...
2017-06-13 12:54:09: 15.02% completed...
2017-06-13 12:54:10: 20.03% completed...
2017-06-13 12:54:10: 25.03% completed...
2017-06-13 12:54:11: 30.04% completed...
2017-06-13 12:54:12: 35.05% completed...
2017-06-13 12:54:13: 40.05% completed...
2017-06-13 12:54:14: 45.06% completed...
2017-06-13 12:54:15: 50.07% completed...
2017-06-13 12:54:16: 55.07% completed...
2017-06-13 12:54:17: 60.08% completed...
2017-06-13 12:54:18: 65.09% completed...
2017-06-13 12:54:19: 70.09% completed...
2017-06-13 12:54:20: 75.10% completed...
2017-06-13 12:54:21: 80.11% completed...
2017-06-13 12:54:22: 85.12% completed...
2017-06-13 12:54:23: 90.12% completed...
2017-06-13 12:54:23: 95.13% completed...
2017-06-13 12:54:24: 100.00% completed.
2017-06-13 12:54:24: End of calculation.
2017-06-13 12:54:24: Total calculation time: 19906 ms.
done
computing RF ...
done
comparing quartet score to original ...
Splits	Found	141	Total	141	Frac	1	MaxLnDf	0.174	Ratio	0.967	MaxBtDf	3.89
done
comparing local support to original ...
Splits	Found	141	Total	141	Frac	1	MaxLnDf	0.174	Ratio	0.967	MaxBtDf	3.89
done
All done!
