filtering ...
/Users/uym2/my_gits/LongBranchFiltering/find_threshold_lnorm.R
done
quartet scoring by astral ...
done
computing local support by astral ...
done
extracting occupancy ...
done
computing MS ...
TreeCmp version 1.0-b291

Active options:
Type of the analysis:  one-to-all comparison mode (-r)
Metrics:
  1. MatchingSplit (ms)
Input file: ../gene_trees/LBF/is.poly.gt.LBF.medl.0.05.trees
Output file: ../results/is.poly.medl.0.05.MS.dat
Additional options:
P - Prune compared trees if needed (trees can have different leaf sets).
-----
2017-06-13 13:41:00: Start of scanning input file: ../gene_trees/LBF/is.poly.gt.LBF.medl.0.05.trees
2017-06-13 13:41:02: End of scanning input file: ../gene_trees/LBF/is.poly.gt.LBF.medl.0.05.trees
2017-06-13 13:41:02: 1478 valid trees found in file: ../gene_trees/LBF/is.poly.gt.LBF.medl.0.05.trees
2017-06-13 13:41:02: Start of calculation...please wait...
2017-06-13 13:41:02: 0.00% completed...
2017-06-13 13:41:03: 5.01% completed...
2017-06-13 13:41:03: 10.01% completed...
2017-06-13 13:41:03: 15.02% completed...
2017-06-13 13:41:04: 20.03% completed...
2017-06-13 13:41:04: 25.03% completed...
2017-06-13 13:41:05: 30.04% completed...
2017-06-13 13:41:05: 35.05% completed...
2017-06-13 13:41:05: 40.05% completed...
2017-06-13 13:41:06: 45.06% completed...
2017-06-13 13:41:06: 50.07% completed...
2017-06-13 13:41:07: 55.07% completed...
2017-06-13 13:41:07: 60.08% completed...
2017-06-13 13:41:07: 65.09% completed...
2017-06-13 13:41:08: 70.09% completed...
2017-06-13 13:41:09: 75.10% completed...
2017-06-13 13:41:09: 80.11% completed...
2017-06-13 13:41:09: 85.12% completed...
2017-06-13 13:41:10: 90.12% completed...
2017-06-13 13:41:10: 95.13% completed...
2017-06-13 13:41:10: 100.00% completed.
2017-06-13 13:41:10: End of calculation.
2017-06-13 13:41:10: Total calculation time: 8503 ms.
done
computing RF ...
done
comparing quartet score to original ...
Splits	Found	141	Total	141	Frac	1	MaxLnDf	0.443	Ratio	0.907	MaxBtDf	10.2
done
comparing local support to original ...
Splits	Found	141	Total	141	Frac	1	MaxLnDf	0.443	Ratio	0.907	MaxBtDf	10.2
done
All done!
