quartet scoring by astral ...
done
computing local support by astral ...
done
extracting occupancy ...
done
computing MS ...
TreeCmp version 1.0-b291

Active options:
Type of the analysis:  one-to-all comparison mode (-r)
Metrics:
  1. MatchingSplit (ms)
Input file: ../gene_trees/randprune/is.poly.gt.randprune.med.0.075.trees
Output file: ../results/is.poly.randprune.med.0.075.MS.dat
Additional options:
P - Prune compared trees if needed (trees can have different leaf sets).
-----
2017-06-14 00:56:56: Start of scanning input file: ../gene_trees/randprune/is.poly.gt.randprune.med.0.075.trees
2017-06-14 00:56:58: End of scanning input file: ../gene_trees/randprune/is.poly.gt.randprune.med.0.075.trees
2017-06-14 00:56:58: 1478 valid trees found in file: ../gene_trees/randprune/is.poly.gt.randprune.med.0.075.trees
2017-06-14 00:56:58: Start of calculation...please wait...
2017-06-14 00:56:58: 0.00% completed...
2017-06-14 00:56:59: 5.01% completed...
2017-06-14 00:56:59: 10.01% completed...
2017-06-14 00:57:00: 15.02% completed...
2017-06-14 00:57:00: 20.03% completed...
2017-06-14 00:57:00: 25.03% completed...
2017-06-14 00:57:00: 30.04% completed...
2017-06-14 00:57:01: 35.05% completed...
2017-06-14 00:57:01: 40.05% completed...
2017-06-14 00:57:01: 45.06% completed...
2017-06-14 00:57:02: 50.07% completed...
2017-06-14 00:57:02: 55.07% completed...
2017-06-14 00:57:02: 60.08% completed...
2017-06-14 00:57:02: 65.09% completed...
2017-06-14 00:57:03: 70.09% completed...
2017-06-14 00:57:03: 75.10% completed...
2017-06-14 00:57:03: 80.11% completed...
2017-06-14 00:57:03: 85.12% completed...
2017-06-14 00:57:03: 90.12% completed...
2017-06-14 00:57:03: 95.13% completed...
2017-06-14 00:57:04: 100.00% completed.
2017-06-14 00:57:04: End of calculation.
2017-06-14 00:57:04: Total calculation time: 5498 ms.
done
comparing quartet score to original ...
Splits	Found	141	Total	141	Frac	1	MaxLnDf	0.0797	Ratio	0.989	MaxBtDf	1.09
done
comparing local support to original ...
Splits	Found	141	Total	141	Frac	1	MaxLnDf	0.0797	Ratio	0.989	MaxBtDf	1.09
done
All done!
