pruning
astral scoring
extract occupancy
compute MS
TreeCmp version 1.0-b291

Active options:
Type of the analysis:  one-to-all comparison mode (-r)
Metrics:
  1. MatchingSplit (ms)
Input file: ../gene_trees/rooted_pruning/kp.c1c2.gt.mixed.3.5.trees
Output file: ../results/kp.c1c2.mixed.3.5.MS.dat
Additional options:
P - Prune compared trees if needed (trees can have different leaf sets).
-----
2017-06-14 14:42:00: Start of scanning input file: ../gene_trees/rooted_pruning/kp.c1c2.gt.mixed.3.5.trees
2017-06-14 14:42:01: End of scanning input file: ../gene_trees/rooted_pruning/kp.c1c2.gt.mixed.3.5.trees
2017-06-14 14:42:01: 852 valid trees found in file: ../gene_trees/rooted_pruning/kp.c1c2.gt.mixed.3.5.trees
2017-06-14 14:42:01: Start of calculation...please wait...
2017-06-14 14:42:01: 0.00% completed...
2017-06-14 14:42:02: 5.05% completed...
2017-06-14 14:42:02: 10.09% completed...
2017-06-14 14:42:03: 15.14% completed...
2017-06-14 14:42:03: 20.19% completed...
2017-06-14 14:42:03: 25.23% completed...
2017-06-14 14:42:03: 30.28% completed...
2017-06-14 14:42:03: 35.33% completed...
2017-06-14 14:42:04: 40.38% completed...
2017-06-14 14:42:04: 45.42% completed...
2017-06-14 14:42:04: 50.47% completed...
2017-06-14 14:42:04: 55.52% completed...
2017-06-14 14:42:04: 60.56% completed...
2017-06-14 14:42:04: 65.61% completed...
2017-06-14 14:42:04: 70.66% completed...
2017-06-14 14:42:04: 75.70% completed...
2017-06-14 14:42:05: 80.75% completed...
2017-06-14 14:42:05: 85.80% completed...
2017-06-14 14:42:05: 90.85% completed...
2017-06-14 14:42:05: 95.89% completed...
2017-06-14 14:42:05: 100.00% completed.
2017-06-14 14:42:05: End of calculation.
2017-06-14 14:42:05: Total calculation time: 3336 ms.
compute RF
extract quartet support and branch lenghts
Splits	Found	100	Total	100	Frac	1	MaxLnDf	0.784	Ratio	0.963	MaxBtDf	5.99
