astral scoring
extract occupancy
compute MS
TreeCmp version 1.0-b291

Active options:
Type of the analysis:  one-to-all comparison mode (-r)
Metrics:
  1. MatchingSplit (ms)
Input file: ../gene_trees/rooted_pruning/kp.c1c2.gt.MV.3.5.trees
Output file: ../results/kp.c1c2.MV.3.5.MS.dat
Additional options:
P - Prune compared trees if needed (trees can have different leaf sets).
-----
2017-06-13 02:09:55: Start of scanning input file: ../gene_trees/rooted_pruning/kp.c1c2.gt.MV.3.5.trees
2017-06-13 02:09:57: End of scanning input file: ../gene_trees/rooted_pruning/kp.c1c2.gt.MV.3.5.trees
2017-06-13 02:09:57: 852 valid trees found in file: ../gene_trees/rooted_pruning/kp.c1c2.gt.MV.3.5.trees
2017-06-13 02:09:57: Start of calculation...please wait...
2017-06-13 02:09:57: 0.00% completed...
2017-06-13 02:09:59: 5.05% completed...
2017-06-13 02:09:59: 10.09% completed...
2017-06-13 02:10:00: 15.14% completed...
2017-06-13 02:10:00: 20.19% completed...
2017-06-13 02:10:01: 25.23% completed...
2017-06-13 02:10:01: 30.28% completed...
2017-06-13 02:10:01: 35.33% completed...
2017-06-13 02:10:01: 40.38% completed...
2017-06-13 02:10:02: 45.42% completed...
2017-06-13 02:10:02: 50.47% completed...
2017-06-13 02:10:02: 55.52% completed...
2017-06-13 02:10:03: 60.56% completed...
2017-06-13 02:10:03: 65.61% completed...
2017-06-13 02:10:03: 70.66% completed...
2017-06-13 02:10:03: 75.70% completed...
2017-06-13 02:10:03: 80.75% completed...
2017-06-13 02:10:04: 85.80% completed...
2017-06-13 02:10:04: 90.85% completed...
2017-06-13 02:10:04: 95.89% completed...
2017-06-13 02:10:04: 100.00% completed.
2017-06-13 02:10:04: End of calculation.
2017-06-13 02:10:04: Total calculation time: 6872 ms.
compute RF
extract quartet support and branch lenghts
Splits	Found	100	Total	100	Frac	1	MaxLnDf	0.0977	Ratio	0.988	MaxBtDf	3.63
