quartet scoring by astral ...
done
computing local support by astral ...
done
extracting occupancy ...
done
computing MS ...
TreeCmp version 1.0-b291

Active options:
Type of the analysis:  one-to-all comparison mode (-r)
Metrics:
  1. MatchingSplit (ms)
Input file: ../gene_trees/LBF/kp.c1c2.gt.LBF.stsd.0.01.trees
Output file: ../results/kp.c1c2.stsd.0.01.MS.dat
Additional options:
P - Prune compared trees if needed (trees can have different leaf sets).
-----
2017-06-13 16:39:27: Start of scanning input file: ../gene_trees/LBF/kp.c1c2.gt.LBF.stsd.0.01.trees
2017-06-13 16:39:29: End of scanning input file: ../gene_trees/LBF/kp.c1c2.gt.LBF.stsd.0.01.trees
2017-06-13 16:39:29: 852 valid trees found in file: ../gene_trees/LBF/kp.c1c2.gt.LBF.stsd.0.01.trees
2017-06-13 16:39:29: Start of calculation...please wait...
2017-06-13 16:39:29: 0.00% completed...
2017-06-13 16:39:29: 5.05% completed...
2017-06-13 16:39:30: 10.09% completed...
2017-06-13 16:39:30: 15.14% completed...
2017-06-13 16:39:30: 20.19% completed...
2017-06-13 16:39:31: 25.23% completed...
2017-06-13 16:39:31: 30.28% completed...
2017-06-13 16:39:31: 35.33% completed...
2017-06-13 16:39:31: 40.38% completed...
2017-06-13 16:39:31: 45.42% completed...
2017-06-13 16:39:32: 50.47% completed...
2017-06-13 16:39:32: 55.52% completed...
2017-06-13 16:39:32: 60.56% completed...
2017-06-13 16:39:32: 65.61% completed...
2017-06-13 16:39:32: 70.66% completed...
2017-06-13 16:39:33: 75.70% completed...
2017-06-13 16:39:33: 80.75% completed...
2017-06-13 16:39:33: 85.80% completed...
2017-06-13 16:39:33: 90.85% completed...
2017-06-13 16:39:33: 95.89% completed...
2017-06-13 16:39:33: 100.00% completed.
2017-06-13 16:39:33: End of calculation.
2017-06-13 16:39:33: Total calculation time: 4550 ms.
done
computing RF ...
done
comparing quartet score to original ...
Splits	Found	100	Total	100	Frac	1	MaxLnDf	0.316	Ratio	0.974	MaxBtDf	2.16
done
comparing local support to original ...
Splits	Found	100	Total	100	Frac	1	MaxLnDf	0.316	Ratio	0.974	MaxBtDf	2.16
done
All done!
