astral scoring
extract occupancy
compute MS
TreeCmp version 1.0-b291

Active options:
Type of the analysis:  one-to-all comparison mode (-r)
Metrics:
  1. MatchingSplit (ms)
Input file: ../gene_trees/rooted_pruning/kp.c1c2.gt.MP.2.5.trees
Output file: ../results/kp.c1c2.MP.2.5.MS.dat
Additional options:
P - Prune compared trees if needed (trees can have different leaf sets).
-----
2017-06-13 02:08:55: Start of scanning input file: ../gene_trees/rooted_pruning/kp.c1c2.gt.MP.2.5.trees
2017-06-13 02:08:56: End of scanning input file: ../gene_trees/rooted_pruning/kp.c1c2.gt.MP.2.5.trees
2017-06-13 02:08:56: 852 valid trees found in file: ../gene_trees/rooted_pruning/kp.c1c2.gt.MP.2.5.trees
2017-06-13 02:08:56: Start of calculation...please wait...
2017-06-13 02:08:56: 0.00% completed...
2017-06-13 02:08:56: 5.05% completed...
2017-06-13 02:08:56: 10.09% completed...
2017-06-13 02:08:56: 15.14% completed...
2017-06-13 02:08:56: 20.19% completed...
2017-06-13 02:08:57: 25.23% completed...
2017-06-13 02:08:57: 30.28% completed...
2017-06-13 02:08:57: 35.33% completed...
2017-06-13 02:08:57: 40.38% completed...
2017-06-13 02:08:57: 45.42% completed...
2017-06-13 02:08:57: 50.47% completed...
2017-06-13 02:08:57: 55.52% completed...
2017-06-13 02:08:57: 60.56% completed...
2017-06-13 02:08:57: 65.61% completed...
2017-06-13 02:08:57: 70.66% completed...
2017-06-13 02:08:57: 75.70% completed...
2017-06-13 02:08:57: 80.75% completed...
2017-06-13 02:08:57: 85.80% completed...
2017-06-13 02:08:57: 90.85% completed...
2017-06-13 02:08:57: 95.89% completed...
2017-06-13 02:08:57: 100.00% completed.
2017-06-13 02:08:57: End of calculation.
2017-06-13 02:08:57: Total calculation time: 1683 ms.
compute RF
extract quartet support and branch lenghts
Splits	Found	100	Total	100	Frac	1	MaxLnDf	0.138	Ratio	0.98	MaxBtDf	6.74
