quartet scoring by astral ...
done
computing local support by astral ...
done
extracting occupancy ...
done
computing MS ...
TreeCmp version 1.0-b291

Active options:
Type of the analysis:  one-to-all comparison mode (-r)
Metrics:
  1. MatchingSplit (ms)
Input file: ../gene_trees/LBF/kp.c1c2.gt.LBF.medl.0.01.trees
Output file: ../results/kp.c1c2.medl.0.01.MS.dat
Additional options:
P - Prune compared trees if needed (trees can have different leaf sets).
-----
2017-06-13 14:33:55: Start of scanning input file: ../gene_trees/LBF/kp.c1c2.gt.LBF.medl.0.01.trees
2017-06-13 14:33:59: End of scanning input file: ../gene_trees/LBF/kp.c1c2.gt.LBF.medl.0.01.trees
2017-06-13 14:33:59: 852 valid trees found in file: ../gene_trees/LBF/kp.c1c2.gt.LBF.medl.0.01.trees
2017-06-13 14:33:59: Start of calculation...please wait...
2017-06-13 14:33:59: 0.00% completed...
2017-06-13 14:34:02: 5.05% completed...
2017-06-13 14:34:04: 10.09% completed...
2017-06-13 14:34:05: 15.14% completed...
2017-06-13 14:34:06: 20.19% completed...
2017-06-13 14:34:06: 25.23% completed...
2017-06-13 14:34:07: 30.28% completed...
2017-06-13 14:34:07: 35.33% completed...
2017-06-13 14:34:07: 40.38% completed...
2017-06-13 14:34:08: 45.42% completed...
2017-06-13 14:34:08: 50.47% completed...
2017-06-13 14:34:08: 55.52% completed...
2017-06-13 14:34:09: 60.56% completed...
2017-06-13 14:34:09: 65.61% completed...
2017-06-13 14:34:09: 70.66% completed...
2017-06-13 14:34:10: 75.70% completed...
2017-06-13 14:34:10: 80.75% completed...
2017-06-13 14:34:10: 85.80% completed...
2017-06-13 14:34:11: 90.85% completed...
2017-06-13 14:34:11: 95.89% completed...
2017-06-13 14:34:11: 100.00% completed.
2017-06-13 14:34:11: End of calculation.
2017-06-13 14:34:11: Total calculation time: 11843 ms.
done
computing RF ...
done
comparing quartet score to original ...
Splits	Found	100	Total	100	Frac	1	MaxLnDf	0.898	Ratio	0.928	MaxBtDf	5.25
done
comparing local support to original ...
Splits	Found	100	Total	100	Frac	1	MaxLnDf	0.898	Ratio	0.928	MaxBtDf	5.25
done
All done!
