quartet scoring by astral ...
done
computing local support by astral ...
done
extracting occupancy ...
done
computing MS ...
TreeCmp version 1.0-b291

Active options:
Type of the analysis:  one-to-all comparison mode (-r)
Metrics:
  1. MatchingSplit (ms)
Input file: ../gene_trees/LBF/kp.c1c2.gt.LBF.medl.0.05.trees
Output file: ../results/kp.c1c2.medl.0.05.MS.dat
Additional options:
P - Prune compared trees if needed (trees can have different leaf sets).
-----
2017-06-13 14:33:49: Start of scanning input file: ../gene_trees/LBF/kp.c1c2.gt.LBF.medl.0.05.trees
2017-06-13 14:33:53: End of scanning input file: ../gene_trees/LBF/kp.c1c2.gt.LBF.medl.0.05.trees
2017-06-13 14:33:53: 852 valid trees found in file: ../gene_trees/LBF/kp.c1c2.gt.LBF.medl.0.05.trees
2017-06-13 14:33:53: Start of calculation...please wait...
2017-06-13 14:33:53: 0.00% completed...
2017-06-13 14:33:54: 5.05% completed...
2017-06-13 14:33:56: 10.09% completed...
2017-06-13 14:33:56: 15.14% completed...
2017-06-13 14:33:57: 20.19% completed...
2017-06-13 14:33:58: 25.23% completed...
2017-06-13 14:33:58: 30.28% completed...
2017-06-13 14:33:59: 35.33% completed...
2017-06-13 14:34:00: 40.38% completed...
2017-06-13 14:34:00: 45.42% completed...
2017-06-13 14:34:00: 50.47% completed...
2017-06-13 14:34:01: 55.52% completed...
2017-06-13 14:34:01: 60.56% completed...
2017-06-13 14:34:02: 65.61% completed...
2017-06-13 14:34:02: 70.66% completed...
2017-06-13 14:34:02: 75.70% completed...
2017-06-13 14:34:03: 80.75% completed...
2017-06-13 14:34:03: 85.80% completed...
2017-06-13 14:34:04: 90.85% completed...
2017-06-13 14:34:04: 95.89% completed...
2017-06-13 14:34:04: 100.00% completed.
2017-06-13 14:34:04: End of calculation.
2017-06-13 14:34:04: Total calculation time: 11359 ms.
done
computing RF ...
(standard_in) 2: parse error
(standard_in) 2: parse error
done
comparing quartet score to original ...
Splits	Found	100	Total	100	Frac	1	MaxLnDf	1.1	Ratio	0.904	MaxBtDf	62.9
done
comparing local support to original ...
Splits	Found	100	Total	100	Frac	1	MaxLnDf	1.1	Ratio	0.904	MaxBtDf	62.9
done
All done!
