astral scoring
extract occupancy
compute MS
TreeCmp version 1.0-b291

Active options:
Type of the analysis:  one-to-all comparison mode (-r)
Metrics:
  1. MatchingSplit (ms)
Input file: ../gene_trees/rooted_pruning/kp.c1c2.gt.MP.3.5.trees
Output file: ../results/kp.c1c2.MP.3.5.MS.dat
Additional options:
P - Prune compared trees if needed (trees can have different leaf sets).
-----
2017-06-13 02:09:02: Start of scanning input file: ../gene_trees/rooted_pruning/kp.c1c2.gt.MP.3.5.trees
2017-06-13 02:09:03: End of scanning input file: ../gene_trees/rooted_pruning/kp.c1c2.gt.MP.3.5.trees
2017-06-13 02:09:03: 852 valid trees found in file: ../gene_trees/rooted_pruning/kp.c1c2.gt.MP.3.5.trees
2017-06-13 02:09:03: Start of calculation...please wait...
2017-06-13 02:09:03: 0.00% completed...
2017-06-13 02:09:04: 5.05% completed...
2017-06-13 02:09:04: 10.09% completed...
2017-06-13 02:09:04: 15.14% completed...
2017-06-13 02:09:04: 20.19% completed...
2017-06-13 02:09:04: 25.23% completed...
2017-06-13 02:09:04: 30.28% completed...
2017-06-13 02:09:05: 35.33% completed...
2017-06-13 02:09:05: 40.38% completed...
2017-06-13 02:09:05: 45.42% completed...
2017-06-13 02:09:05: 50.47% completed...
2017-06-13 02:09:05: 55.52% completed...
2017-06-13 02:09:06: 60.56% completed...
2017-06-13 02:09:06: 65.61% completed...
2017-06-13 02:09:06: 70.66% completed...
2017-06-13 02:09:06: 75.70% completed...
2017-06-13 02:09:06: 80.75% completed...
2017-06-13 02:09:06: 85.80% completed...
2017-06-13 02:09:06: 90.85% completed...
2017-06-13 02:09:06: 95.89% completed...
2017-06-13 02:09:07: 100.00% completed.
2017-06-13 02:09:07: End of calculation.
2017-06-13 02:09:07: Total calculation time: 3509 ms.
compute RF
extract quartet support and branch lenghts
Splits	Found	100	Total	100	Frac	1	MaxLnDf	0.0494	Ratio	0.993	MaxBtDf	2.27
