quartet scoring by astral ...
done
computing local support by astral ...
done
extracting occupancy ...
done
computing MS ...
TreeCmp version 1.0-b291

Active options:
Type of the analysis:  one-to-all comparison mode (-r)
Metrics:
  1. MatchingSplit (ms)
Input file: ../gene_trees/LBF/kp.c1c2.gt.LBF.stsd.0.05.trees
Output file: ../results/kp.c1c2.stsd.0.05.MS.dat
Additional options:
P - Prune compared trees if needed (trees can have different leaf sets).
-----
2017-06-13 14:33:51: Start of scanning input file: ../gene_trees/LBF/kp.c1c2.gt.LBF.stsd.0.05.trees
2017-06-13 14:33:55: End of scanning input file: ../gene_trees/LBF/kp.c1c2.gt.LBF.stsd.0.05.trees
2017-06-13 14:33:55: 852 valid trees found in file: ../gene_trees/LBF/kp.c1c2.gt.LBF.stsd.0.05.trees
2017-06-13 14:33:55: Start of calculation...please wait...
2017-06-13 14:33:56: 0.00% completed...
2017-06-13 14:33:58: 5.05% completed...
2017-06-13 14:33:59: 10.09% completed...
2017-06-13 14:34:00: 15.14% completed...
2017-06-13 14:34:01: 20.19% completed...
2017-06-13 14:34:01: 25.23% completed...
2017-06-13 14:34:02: 30.28% completed...
2017-06-13 14:34:03: 35.33% completed...
2017-06-13 14:34:04: 40.38% completed...
2017-06-13 14:34:04: 45.42% completed...
2017-06-13 14:34:05: 50.47% completed...
2017-06-13 14:34:05: 55.52% completed...
2017-06-13 14:34:05: 60.56% completed...
2017-06-13 14:34:06: 65.61% completed...
2017-06-13 14:34:06: 70.66% completed...
2017-06-13 14:34:06: 75.70% completed...
2017-06-13 14:34:07: 80.75% completed...
2017-06-13 14:34:07: 85.80% completed...
2017-06-13 14:34:07: 90.85% completed...
2017-06-13 14:34:07: 95.89% completed...
2017-06-13 14:34:07: 100.00% completed.
2017-06-13 14:34:07: End of calculation.
2017-06-13 14:34:07: Total calculation time: 11945 ms.
done
computing RF ...
done
comparing quartet score to original ...
Splits	Found	100	Total	100	Frac	1	MaxLnDf	0.753	Ratio	0.943	MaxBtDf	4.52
done
comparing local support to original ...
Splits	Found	100	Total	100	Frac	1	MaxLnDf	0.753	Ratio	0.943	MaxBtDf	4.52
done
All done!
