astral scoring
extract occupancy
compute MS
TreeCmp version 1.0-b291

Active options:
Type of the analysis:  one-to-all comparison mode (-r)
Metrics:
  1. MatchingSplit (ms)
Input file: ../gene_trees/rooted_pruning/kp.c1c2.gt.mixed.4.0.trees
Output file: ../results/kp.c1c2.mixed.4.0.MS.dat
Additional options:
P - Prune compared trees if needed (trees can have different leaf sets).
-----
2017-06-14 01:30:31: Start of scanning input file: ../gene_trees/rooted_pruning/kp.c1c2.gt.mixed.4.0.trees
2017-06-14 01:30:33: End of scanning input file: ../gene_trees/rooted_pruning/kp.c1c2.gt.mixed.4.0.trees
2017-06-14 01:30:33: 852 valid trees found in file: ../gene_trees/rooted_pruning/kp.c1c2.gt.mixed.4.0.trees
2017-06-14 01:30:33: Start of calculation...please wait...
2017-06-14 01:30:33: 0.00% completed...
2017-06-14 01:30:34: 5.05% completed...
2017-06-14 01:30:34: 10.09% completed...
2017-06-14 01:30:34: 15.14% completed...
2017-06-14 01:30:35: 20.19% completed...
2017-06-14 01:30:35: 25.23% completed...
2017-06-14 01:30:36: 30.28% completed...
2017-06-14 01:30:36: 35.33% completed...
2017-06-14 01:30:37: 40.38% completed...
2017-06-14 01:30:37: 45.42% completed...
2017-06-14 01:30:37: 50.47% completed...
2017-06-14 01:30:38: 55.52% completed...
2017-06-14 01:30:38: 60.56% completed...
2017-06-14 01:30:38: 65.61% completed...
2017-06-14 01:30:39: 70.66% completed...
2017-06-14 01:30:39: 75.70% completed...
2017-06-14 01:30:39: 80.75% completed...
2017-06-14 01:30:40: 85.80% completed...
2017-06-14 01:30:40: 90.85% completed...
2017-06-14 01:30:40: 95.89% completed...
2017-06-14 01:30:40: 100.00% completed.
2017-06-14 01:30:40: End of calculation.
2017-06-14 01:30:40: Total calculation time: 7326 ms.
compute RF
