pruning
astral scoring
extract occupancy
compute MS
TreeCmp version 1.0-b291

Active options:
Type of the analysis:  one-to-all comparison mode (-r)
Metrics:
  1. MatchingSplit (ms)
Input file: ../gene_trees/rooted_pruning/kp.c1c2.gt.mixed.2.0.trees
Output file: ../results/kp.c1c2.mixed.2.0.MS.dat
Additional options:
P - Prune compared trees if needed (trees can have different leaf sets).
-----
2017-06-14 14:41:12: Start of scanning input file: ../gene_trees/rooted_pruning/kp.c1c2.gt.mixed.2.0.trees
2017-06-14 14:41:13: End of scanning input file: ../gene_trees/rooted_pruning/kp.c1c2.gt.mixed.2.0.trees
2017-06-14 14:41:13: 852 valid trees found in file: ../gene_trees/rooted_pruning/kp.c1c2.gt.mixed.2.0.trees
2017-06-14 14:41:13: Start of calculation...please wait...
2017-06-14 14:41:13: 0.00% completed...
2017-06-14 14:41:14: 5.05% completed...
2017-06-14 14:41:14: 10.09% completed...
2017-06-14 14:41:14: 15.14% completed...
2017-06-14 14:41:14: 20.19% completed...
2017-06-14 14:41:15: 25.23% completed...
2017-06-14 14:41:15: 30.28% completed...
2017-06-14 14:41:15: 35.33% completed...
2017-06-14 14:41:15: 40.38% completed...
2017-06-14 14:41:15: 45.42% completed...
2017-06-14 14:41:15: 50.47% completed...
2017-06-14 14:41:15: 55.52% completed...
2017-06-14 14:41:15: 60.56% completed...
2017-06-14 14:41:15: 65.61% completed...
2017-06-14 14:41:16: 70.66% completed...
2017-06-14 14:41:16: 75.70% completed...
2017-06-14 14:41:16: 80.75% completed...
2017-06-14 14:41:16: 85.80% completed...
2017-06-14 14:41:16: 90.85% completed...
2017-06-14 14:41:16: 95.89% completed...
2017-06-14 14:41:16: 100.00% completed.
2017-06-14 14:41:16: End of calculation.
2017-06-14 14:41:16: Total calculation time: 2886 ms.
compute RF
extract quartet support and branch lenghts
Splits	Found	100	Total	100	Frac	1	MaxLnDf	0.839	Ratio	0.94	MaxBtDf	8.47
