quartet scoring by astral ...
done
computing local support by astral ...
done
extracting occupancy ...
done
computing MS ...
TreeCmp version 1.0-b291

Active options:
Type of the analysis:  one-to-all comparison mode (-r)
Metrics:
  1. MatchingSplit (ms)
Input file: ../gene_trees/LBF/kp.c1c2.gt.LBF.medd.0.075.trees
Output file: ../results/kp.c1c2.medd.0.075.MS.dat
Additional options:
P - Prune compared trees if needed (trees can have different leaf sets).
-----
2017-06-13 14:33:53: Start of scanning input file: ../gene_trees/LBF/kp.c1c2.gt.LBF.medd.0.075.trees
2017-06-13 14:33:57: End of scanning input file: ../gene_trees/LBF/kp.c1c2.gt.LBF.medd.0.075.trees
2017-06-13 14:33:57: 852 valid trees found in file: ../gene_trees/LBF/kp.c1c2.gt.LBF.medd.0.075.trees
2017-06-13 14:33:57: Start of calculation...please wait...
2017-06-13 14:33:57: 0.00% completed...
2017-06-13 14:33:59: 5.05% completed...
2017-06-13 14:34:00: 10.09% completed...
2017-06-13 14:34:01: 15.14% completed...
2017-06-13 14:34:02: 20.19% completed...
2017-06-13 14:34:03: 25.23% completed...
2017-06-13 14:34:03: 30.28% completed...
2017-06-13 14:34:04: 35.33% completed...
2017-06-13 14:34:04: 40.38% completed...
2017-06-13 14:34:05: 45.42% completed...
2017-06-13 14:34:05: 50.47% completed...
2017-06-13 14:34:06: 55.52% completed...
2017-06-13 14:34:06: 60.56% completed...
2017-06-13 14:34:06: 65.61% completed...
2017-06-13 14:34:07: 70.66% completed...
2017-06-13 14:34:07: 75.70% completed...
2017-06-13 14:34:07: 80.75% completed...
2017-06-13 14:34:08: 85.80% completed...
2017-06-13 14:34:08: 90.85% completed...
2017-06-13 14:34:08: 95.89% completed...
2017-06-13 14:34:08: 100.00% completed.
2017-06-13 14:34:08: End of calculation.
2017-06-13 14:34:08: Total calculation time: 11037 ms.
done
computing RF ...
done
comparing quartet score to original ...
Splits	Found	100	Total	100	Frac	1	MaxLnDf	0.973	Ratio	0.923	MaxBtDf	4.45
done
comparing local support to original ...
Splits	Found	100	Total	100	Frac	1	MaxLnDf	0.973	Ratio	0.923	MaxBtDf	4.45
done
All done!
