quartet scoring by astral ...
done
computing local support by astral ...
done
extracting occupancy ...
done
computing MS ...
TreeCmp version 1.0-b291

Active options:
Type of the analysis:  one-to-all comparison mode (-r)
Metrics:
  1. MatchingSplit (ms)
Input file: ../gene_trees/LBF/kp.c1c2.gt.LBF.ind.0.01.trees
Output file: ../results/kp.c1c2.ind.0.01.MS.dat
Additional options:
P - Prune compared trees if needed (trees can have different leaf sets).
-----
2017-06-13 16:41:23: Start of scanning input file: ../gene_trees/LBF/kp.c1c2.gt.LBF.ind.0.01.trees
2017-06-13 16:41:26: End of scanning input file: ../gene_trees/LBF/kp.c1c2.gt.LBF.ind.0.01.trees
2017-06-13 16:41:26: 852 valid trees found in file: ../gene_trees/LBF/kp.c1c2.gt.LBF.ind.0.01.trees
2017-06-13 16:41:26: Start of calculation...please wait...
2017-06-13 16:41:26: 0.00% completed...
2017-06-13 16:41:27: 5.05% completed...
2017-06-13 16:41:28: 10.09% completed...
2017-06-13 16:41:28: 15.14% completed...
2017-06-13 16:41:29: 20.19% completed...
2017-06-13 16:41:29: 25.23% completed...
2017-06-13 16:41:30: 30.28% completed...
2017-06-13 16:41:30: 35.33% completed...
2017-06-13 16:41:31: 40.38% completed...
2017-06-13 16:41:31: 45.42% completed...
2017-06-13 16:41:32: 50.47% completed...
2017-06-13 16:41:32: 55.52% completed...
2017-06-13 16:41:32: 60.56% completed...
2017-06-13 16:41:33: 65.61% completed...
2017-06-13 16:41:33: 70.66% completed...
2017-06-13 16:41:33: 75.70% completed...
2017-06-13 16:41:33: 80.75% completed...
2017-06-13 16:41:33: 85.80% completed...
2017-06-13 16:41:33: 90.85% completed...
2017-06-13 16:41:34: 95.89% completed...
2017-06-13 16:41:34: 100.00% completed.
2017-06-13 16:41:34: End of calculation.
2017-06-13 16:41:34: Total calculation time: 7960 ms.
done
computing RF ...
done
comparing quartet score to original ...
Splits	Found	100	Total	100	Frac	1	MaxLnDf	0.408	Ratio	0.972	MaxBtDf	2.71
done
comparing local support to original ...
Splits	Found	100	Total	100	Frac	1	MaxLnDf	0.408	Ratio	0.972	MaxBtDf	2.71
done
All done!
