pruning
astral scoring
extract occupancy
compute MS
TreeCmp version 1.0-b291

Active options:
Type of the analysis:  one-to-all comparison mode (-r)
Metrics:
  1. MatchingSplit (ms)
Input file: ../gene_trees/rooted_pruning/kp.c1c2.gt.mixed.4.0.trees
Output file: ../results/kp.c1c2.mixed.4.0.MS.dat
Additional options:
P - Prune compared trees if needed (trees can have different leaf sets).
-----
2017-06-14 14:42:17: Start of scanning input file: ../gene_trees/rooted_pruning/kp.c1c2.gt.mixed.4.0.trees
2017-06-14 14:42:19: End of scanning input file: ../gene_trees/rooted_pruning/kp.c1c2.gt.mixed.4.0.trees
2017-06-14 14:42:19: 852 valid trees found in file: ../gene_trees/rooted_pruning/kp.c1c2.gt.mixed.4.0.trees
2017-06-14 14:42:19: Start of calculation...please wait...
2017-06-14 14:42:19: 0.00% completed...
2017-06-14 14:42:20: 5.05% completed...
2017-06-14 14:42:20: 10.09% completed...
2017-06-14 14:42:20: 15.14% completed...
2017-06-14 14:42:20: 20.19% completed...
2017-06-14 14:42:21: 25.23% completed...
2017-06-14 14:42:21: 30.28% completed...
2017-06-14 14:42:21: 35.33% completed...
2017-06-14 14:42:21: 40.38% completed...
2017-06-14 14:42:21: 45.42% completed...
2017-06-14 14:42:22: 50.47% completed...
2017-06-14 14:42:22: 55.52% completed...
2017-06-14 14:42:22: 60.56% completed...
2017-06-14 14:42:22: 65.61% completed...
2017-06-14 14:42:22: 70.66% completed...
2017-06-14 14:42:22: 75.70% completed...
2017-06-14 14:42:23: 80.75% completed...
2017-06-14 14:42:23: 85.80% completed...
2017-06-14 14:42:23: 90.85% completed...
2017-06-14 14:42:23: 95.89% completed...
2017-06-14 14:42:23: 100.00% completed.
2017-06-14 14:42:23: End of calculation.
2017-06-14 14:42:23: Total calculation time: 4062 ms.
compute RF
extract quartet support and branch lenghts
Splits	Found	100	Total	100	Frac	1	MaxLnDf	0.787	Ratio	0.971	MaxBtDf	3.66
