astral scoring
extract occupancy
compute MS
TreeCmp version 1.0-b291

Active options:
Type of the analysis:  one-to-all comparison mode (-r)
Metrics:
  1. MatchingSplit (ms)
Input file: ../gene_trees/rooted_pruning/kp.c1c2.gt.MV.2.0.trees
Output file: ../results/kp.c1c2.MV.2.0.MS.dat
Additional options:
P - Prune compared trees if needed (trees can have different leaf sets).
-----
2017-06-13 02:09:34: Start of scanning input file: ../gene_trees/rooted_pruning/kp.c1c2.gt.MV.2.0.trees
2017-06-13 02:09:36: End of scanning input file: ../gene_trees/rooted_pruning/kp.c1c2.gt.MV.2.0.trees
2017-06-13 02:09:36: 852 valid trees found in file: ../gene_trees/rooted_pruning/kp.c1c2.gt.MV.2.0.trees
2017-06-13 02:09:36: Start of calculation...please wait...
2017-06-13 02:09:36: 0.00% completed...
2017-06-13 02:09:36: 5.05% completed...
2017-06-13 02:09:37: 10.09% completed...
2017-06-13 02:09:38: 15.14% completed...
2017-06-13 02:09:38: 20.19% completed...
2017-06-13 02:09:39: 25.23% completed...
2017-06-13 02:09:40: 30.28% completed...
2017-06-13 02:09:40: 35.33% completed...
2017-06-13 02:09:41: 40.38% completed...
2017-06-13 02:09:41: 45.42% completed...
2017-06-13 02:09:41: 50.47% completed...
2017-06-13 02:09:41: 55.52% completed...
2017-06-13 02:09:42: 60.56% completed...
2017-06-13 02:09:42: 65.61% completed...
2017-06-13 02:09:42: 70.66% completed...
2017-06-13 02:09:42: 75.70% completed...
2017-06-13 02:09:43: 80.75% completed...
2017-06-13 02:09:43: 85.80% completed...
2017-06-13 02:09:43: 90.85% completed...
2017-06-13 02:09:43: 95.89% completed...
2017-06-13 02:09:43: 100.00% completed.
2017-06-13 02:09:43: End of calculation.
2017-06-13 02:09:43: Total calculation time: 7695 ms.
compute RF
extract quartet support and branch lenghts
Splits	Found	100	Total	100	Frac	1	MaxLnDf	0.185	Ratio	0.976	MaxBtDf	4.73
