pruning
astral scoring
extract occupancy
compute MS
TreeCmp version 1.0-b291

Active options:
Type of the analysis:  one-to-all comparison mode (-r)
Metrics:
  1. MatchingSplit (ms)
Input file: ../gene_trees/rooted_pruning/kp.c1c2.gt.mixed.2.5.trees
Output file: ../results/kp.c1c2.mixed.2.5.MS.dat
Additional options:
P - Prune compared trees if needed (trees can have different leaf sets).
-----
2017-06-14 14:41:30: Start of scanning input file: ../gene_trees/rooted_pruning/kp.c1c2.gt.mixed.2.5.trees
2017-06-14 14:41:31: End of scanning input file: ../gene_trees/rooted_pruning/kp.c1c2.gt.mixed.2.5.trees
2017-06-14 14:41:31: 852 valid trees found in file: ../gene_trees/rooted_pruning/kp.c1c2.gt.mixed.2.5.trees
2017-06-14 14:41:31: Start of calculation...please wait...
2017-06-14 14:41:32: 0.00% completed...
2017-06-14 14:41:32: 5.05% completed...
2017-06-14 14:41:32: 10.09% completed...
2017-06-14 14:41:33: 15.14% completed...
2017-06-14 14:41:33: 20.19% completed...
2017-06-14 14:41:33: 25.23% completed...
2017-06-14 14:41:33: 30.28% completed...
2017-06-14 14:41:33: 35.33% completed...
2017-06-14 14:41:33: 40.38% completed...
2017-06-14 14:41:34: 45.42% completed...
2017-06-14 14:41:34: 50.47% completed...
2017-06-14 14:41:34: 55.52% completed...
2017-06-14 14:41:34: 60.56% completed...
2017-06-14 14:41:34: 65.61% completed...
2017-06-14 14:41:34: 70.66% completed...
2017-06-14 14:41:34: 75.70% completed...
2017-06-14 14:41:34: 80.75% completed...
2017-06-14 14:41:35: 85.80% completed...
2017-06-14 14:41:35: 90.85% completed...
2017-06-14 14:41:35: 95.89% completed...
2017-06-14 14:41:35: 100.00% completed.
2017-06-14 14:41:35: End of calculation.
2017-06-14 14:41:35: Total calculation time: 3210 ms.
compute RF
extract quartet support and branch lenghts
Splits	Found	100	Total	100	Frac	1	MaxLnDf	0.786	Ratio	0.953	MaxBtDf	7.2
