quartet scoring by astral ...
done
computing local support by astral ...
done
extracting occupancy ...
done
computing MS ...
TreeCmp version 1.0-b291

Active options:
Type of the analysis:  one-to-all comparison mode (-r)
Metrics:
  1. MatchingSplit (ms)
Input file: ../gene_trees/LBF/kp.c1c2.gt.LBF.sts.0.075.trees
Output file: ../results/kp.c1c2.sts.0.075.MS.dat
Additional options:
P - Prune compared trees if needed (trees can have different leaf sets).
-----
2017-06-13 16:50:51: Start of scanning input file: ../gene_trees/LBF/kp.c1c2.gt.LBF.sts.0.075.trees
2017-06-13 16:50:51: End of scanning input file: ../gene_trees/LBF/kp.c1c2.gt.LBF.sts.0.075.trees
2017-06-13 16:50:51: 852 valid trees found in file: ../gene_trees/LBF/kp.c1c2.gt.LBF.sts.0.075.trees
2017-06-13 16:50:51: Start of calculation...please wait...
2017-06-13 16:50:51: 0.00% completed...
2017-06-13 16:50:51: 5.05% completed...
2017-06-13 16:50:52: 10.09% completed...
2017-06-13 16:50:52: 15.14% completed...
2017-06-13 16:50:52: 20.19% completed...
2017-06-13 16:50:52: 25.23% completed...
2017-06-13 16:50:52: 30.28% completed...
2017-06-13 16:50:52: 35.33% completed...
2017-06-13 16:50:52: 40.38% completed...
2017-06-13 16:50:52: 45.42% completed...
2017-06-13 16:50:52: 50.47% completed...
2017-06-13 16:50:52: 55.52% completed...
2017-06-13 16:50:52: 60.56% completed...
2017-06-13 16:50:52: 65.61% completed...
2017-06-13 16:50:53: 70.66% completed...
2017-06-13 16:50:53: 75.70% completed...
2017-06-13 16:50:53: 80.75% completed...
2017-06-13 16:50:53: 85.80% completed...
2017-06-13 16:50:53: 90.85% completed...
2017-06-13 16:50:53: 95.89% completed...
2017-06-13 16:50:53: 100.00% completed.
2017-06-13 16:50:53: End of calculation.
2017-06-13 16:50:53: Total calculation time: 1452 ms.
done
computing RF ...
done
comparing quartet score to original ...
Splits	Found	100	Total	100	Frac	1	MaxLnDf	0.792	Ratio	0.939	MaxBtDf	4.37
done
comparing local support to original ...
Splits	Found	100	Total	100	Frac	1	MaxLnDf	0.792	Ratio	0.939	MaxBtDf	4.37
done
All done!
