quartet scoring by astral ...
done
computing local support by astral ...
done
extracting occupancy ...
done
computing MS ...
TreeCmp version 1.0-b291

Active options:
Type of the analysis:  one-to-all comparison mode (-r)
Metrics:
  1. MatchingSplit (ms)
Input file: ../gene_trees/LBF/kp.c1c2.gt.LBF.medd.0.1.trees
Output file: ../results/kp.c1c2.medd.0.1.MS.dat
Additional options:
P - Prune compared trees if needed (trees can have different leaf sets).
-----
2017-06-13 16:46:02: Start of scanning input file: ../gene_trees/LBF/kp.c1c2.gt.LBF.medd.0.1.trees
2017-06-13 16:46:03: End of scanning input file: ../gene_trees/LBF/kp.c1c2.gt.LBF.medd.0.1.trees
2017-06-13 16:46:03: 852 valid trees found in file: ../gene_trees/LBF/kp.c1c2.gt.LBF.medd.0.1.trees
2017-06-13 16:46:03: Start of calculation...please wait...
2017-06-13 16:46:03: 0.00% completed...
2017-06-13 16:46:03: 5.05% completed...
2017-06-13 16:46:03: 10.09% completed...
2017-06-13 16:46:03: 15.14% completed...
2017-06-13 16:46:03: 20.19% completed...
2017-06-13 16:46:03: 25.23% completed...
2017-06-13 16:46:03: 30.28% completed...
2017-06-13 16:46:03: 35.33% completed...
2017-06-13 16:46:03: 40.38% completed...
2017-06-13 16:46:03: 45.42% completed...
2017-06-13 16:46:03: 50.47% completed...
2017-06-13 16:46:03: 55.52% completed...
2017-06-13 16:46:03: 60.56% completed...
2017-06-13 16:46:03: 65.61% completed...
2017-06-13 16:46:03: 70.66% completed...
2017-06-13 16:46:03: 75.70% completed...
2017-06-13 16:46:04: 80.75% completed...
2017-06-13 16:46:04: 85.80% completed...
2017-06-13 16:46:04: 90.85% completed...
2017-06-13 16:46:04: 95.89% completed...
2017-06-13 16:46:04: 100.00% completed.
2017-06-13 16:46:04: End of calculation.
2017-06-13 16:46:04: Total calculation time: 996 ms.
done
computing RF ...
done
comparing quartet score to original ...
Splits	Found	100	Total	100	Frac	1	MaxLnDf	0.97	Ratio	0.923	MaxBtDf	4.88
done
comparing local support to original ...
Splits	Found	100	Total	100	Frac	1	MaxLnDf	0.97	Ratio	0.923	MaxBtDf	4.88
done
All done!
