astral scoring
extract occupancy
compute MS
TreeCmp version 1.0-b291

Active options:
Type of the analysis:  one-to-all comparison mode (-r)
Metrics:
  1. MatchingSplit (ms)
Input file: ../gene_trees/rooted_pruning/kp.c1c2.gt.MV.2.5.trees
Output file: ../results/kp.c1c2.MV.2.5.MS.dat
Additional options:
P - Prune compared trees if needed (trees can have different leaf sets).
-----
2017-06-13 02:09:52: Start of scanning input file: ../gene_trees/rooted_pruning/kp.c1c2.gt.MV.2.5.trees
2017-06-13 02:09:54: End of scanning input file: ../gene_trees/rooted_pruning/kp.c1c2.gt.MV.2.5.trees
2017-06-13 02:09:54: 852 valid trees found in file: ../gene_trees/rooted_pruning/kp.c1c2.gt.MV.2.5.trees
2017-06-13 02:09:54: Start of calculation...please wait...
2017-06-13 02:09:54: 0.00% completed...
2017-06-13 02:09:56: 5.05% completed...
2017-06-13 02:09:57: 10.09% completed...
2017-06-13 02:09:58: 15.14% completed...
2017-06-13 02:09:59: 20.19% completed...
2017-06-13 02:09:59: 25.23% completed...
2017-06-13 02:09:59: 30.28% completed...
2017-06-13 02:10:00: 35.33% completed...
2017-06-13 02:10:00: 40.38% completed...
2017-06-13 02:10:00: 45.42% completed...
2017-06-13 02:10:01: 50.47% completed...
2017-06-13 02:10:01: 55.52% completed...
2017-06-13 02:10:01: 60.56% completed...
2017-06-13 02:10:02: 65.61% completed...
2017-06-13 02:10:02: 70.66% completed...
2017-06-13 02:10:02: 75.70% completed...
2017-06-13 02:10:02: 80.75% completed...
2017-06-13 02:10:03: 85.80% completed...
2017-06-13 02:10:03: 90.85% completed...
2017-06-13 02:10:03: 95.89% completed...
2017-06-13 02:10:03: 100.00% completed.
2017-06-13 02:10:03: End of calculation.
2017-06-13 02:10:03: Total calculation time: 8430 ms.
compute RF
extract quartet support and branch lenghts
Splits	Found	100	Total	100	Frac	1	MaxLnDf	0.145	Ratio	0.981	MaxBtDf	4.74
