astral scoring
extract occupancy
compute MS
TreeCmp version 1.0-b291

Active options:
Type of the analysis:  one-to-all comparison mode (-r)
Metrics:
  1. MatchingSplit (ms)
Input file: ../gene_trees/rooted_pruning/kp.c1c2.gt.MP.4.0.trees
Output file: ../results/kp.c1c2.MP.4.0.MS.dat
Additional options:
P - Prune compared trees if needed (trees can have different leaf sets).
-----
2017-06-13 02:09:11: Start of scanning input file: ../gene_trees/rooted_pruning/kp.c1c2.gt.MP.4.0.trees
2017-06-13 02:09:12: End of scanning input file: ../gene_trees/rooted_pruning/kp.c1c2.gt.MP.4.0.trees
2017-06-13 02:09:12: 852 valid trees found in file: ../gene_trees/rooted_pruning/kp.c1c2.gt.MP.4.0.trees
2017-06-13 02:09:12: Start of calculation...please wait...
2017-06-13 02:09:12: 0.00% completed...
2017-06-13 02:09:13: 5.05% completed...
2017-06-13 02:09:13: 10.09% completed...
2017-06-13 02:09:13: 15.14% completed...
2017-06-13 02:09:13: 20.19% completed...
2017-06-13 02:09:14: 25.23% completed...
2017-06-13 02:09:14: 30.28% completed...
2017-06-13 02:09:14: 35.33% completed...
2017-06-13 02:09:14: 40.38% completed...
2017-06-13 02:09:14: 45.42% completed...
2017-06-13 02:09:14: 50.47% completed...
2017-06-13 02:09:14: 55.52% completed...
2017-06-13 02:09:14: 60.56% completed...
2017-06-13 02:09:14: 65.61% completed...
2017-06-13 02:09:15: 70.66% completed...
2017-06-13 02:09:15: 75.70% completed...
2017-06-13 02:09:15: 80.75% completed...
2017-06-13 02:09:15: 85.80% completed...
2017-06-13 02:09:15: 90.85% completed...
2017-06-13 02:09:15: 95.89% completed...
2017-06-13 02:09:15: 100.00% completed.
2017-06-13 02:09:15: End of calculation.
2017-06-13 02:09:15: Total calculation time: 3061 ms.
compute RF
extract quartet support and branch lenghts
Splits	Found	100	Total	100	Frac	1	MaxLnDf	0.0316	Ratio	0.997	MaxBtDf	1.18
