astral scoring
extract occupancy
compute MS
TreeCmp version 1.0-b291

Active options:
Type of the analysis:  one-to-all comparison mode (-r)
Metrics:
  1. MatchingSplit (ms)
Input file: ../gene_trees/rooted_pruning/kp.c1c2.gt.MP.3.0.trees
Output file: ../results/kp.c1c2.MP.3.0.MS.dat
Additional options:
P - Prune compared trees if needed (trees can have different leaf sets).
-----
2017-06-13 02:09:08: Start of scanning input file: ../gene_trees/rooted_pruning/kp.c1c2.gt.MP.3.0.trees
2017-06-13 02:09:09: End of scanning input file: ../gene_trees/rooted_pruning/kp.c1c2.gt.MP.3.0.trees
2017-06-13 02:09:09: 852 valid trees found in file: ../gene_trees/rooted_pruning/kp.c1c2.gt.MP.3.0.trees
2017-06-13 02:09:09: Start of calculation...please wait...
2017-06-13 02:09:09: 0.00% completed...
2017-06-13 02:09:09: 5.05% completed...
2017-06-13 02:09:10: 10.09% completed...
2017-06-13 02:09:10: 15.14% completed...
2017-06-13 02:09:10: 20.19% completed...
2017-06-13 02:09:10: 25.23% completed...
2017-06-13 02:09:10: 30.28% completed...
2017-06-13 02:09:11: 35.33% completed...
2017-06-13 02:09:11: 40.38% completed...
2017-06-13 02:09:11: 45.42% completed...
2017-06-13 02:09:11: 50.47% completed...
2017-06-13 02:09:11: 55.52% completed...
2017-06-13 02:09:11: 60.56% completed...
2017-06-13 02:09:11: 65.61% completed...
2017-06-13 02:09:11: 70.66% completed...
2017-06-13 02:09:12: 75.70% completed...
2017-06-13 02:09:12: 80.75% completed...
2017-06-13 02:09:12: 85.80% completed...
2017-06-13 02:09:12: 90.85% completed...
2017-06-13 02:09:12: 95.89% completed...
2017-06-13 02:09:12: 100.00% completed.
2017-06-13 02:09:12: End of calculation.
2017-06-13 02:09:12: Total calculation time: 3094 ms.
compute RF
extract quartet support and branch lenghts
Splits	Found	100	Total	100	Frac	1	MaxLnDf	0.0892	Ratio	0.987	MaxBtDf	4.82
