astral scoring
extract occupancy
compute MS
TreeCmp version 1.0-b291

Active options:
Type of the analysis:  one-to-all comparison mode (-r)
Metrics:
  1. MatchingSplit (ms)
Input file: ../gene_trees/rooted_pruning/kp.c1c2.gt.MV.4.0.trees
Output file: ../results/kp.c1c2.MV.4.0.MS.dat
Additional options:
P - Prune compared trees if needed (trees can have different leaf sets).
-----
2017-06-13 02:09:42: Start of scanning input file: ../gene_trees/rooted_pruning/kp.c1c2.gt.MV.4.0.trees
2017-06-13 02:09:44: End of scanning input file: ../gene_trees/rooted_pruning/kp.c1c2.gt.MV.4.0.trees
2017-06-13 02:09:44: 852 valid trees found in file: ../gene_trees/rooted_pruning/kp.c1c2.gt.MV.4.0.trees
2017-06-13 02:09:44: Start of calculation...please wait...
2017-06-13 02:09:44: 0.00% completed...
2017-06-13 02:09:46: 5.05% completed...
2017-06-13 02:09:46: 10.09% completed...
2017-06-13 02:09:47: 15.14% completed...
2017-06-13 02:09:48: 20.19% completed...
2017-06-13 02:09:48: 25.23% completed...
2017-06-13 02:09:48: 30.28% completed...
2017-06-13 02:09:49: 35.33% completed...
2017-06-13 02:09:49: 40.38% completed...
2017-06-13 02:09:50: 45.42% completed...
2017-06-13 02:09:50: 50.47% completed...
2017-06-13 02:09:50: 55.52% completed...
2017-06-13 02:09:51: 60.56% completed...
2017-06-13 02:09:51: 65.61% completed...
2017-06-13 02:09:51: 70.66% completed...
2017-06-13 02:09:52: 75.70% completed...
2017-06-13 02:09:52: 80.75% completed...
2017-06-13 02:09:52: 85.80% completed...
2017-06-13 02:09:53: 90.85% completed...
2017-06-13 02:09:53: 95.89% completed...
2017-06-13 02:09:53: 100.00% completed.
2017-06-13 02:09:53: End of calculation.
2017-06-13 02:09:53: Total calculation time: 8803 ms.
compute RF
extract quartet support and branch lenghts
Splits	Found	100	Total	100	Frac	1	MaxLnDf	0.0812	Ratio	0.991	MaxBtDf	2.8
