quartet scoring by astral ...
done
computing local support by astral ...
done
extracting occupancy ...
done
computing MS ...
TreeCmp version 1.0-b291

Active options:
Type of the analysis:  one-to-all comparison mode (-r)
Metrics:
  1. MatchingSplit (ms)
Input file: ../gene_trees/LBF/kp.c1c2.gt.LBF.medd.0.025.trees
Output file: ../results/kp.c1c2.medd.0.025.MS.dat
Additional options:
P - Prune compared trees if needed (trees can have different leaf sets).
-----
2017-06-13 14:33:57: Start of scanning input file: ../gene_trees/LBF/kp.c1c2.gt.LBF.medd.0.025.trees
2017-06-13 14:34:01: End of scanning input file: ../gene_trees/LBF/kp.c1c2.gt.LBF.medd.0.025.trees
2017-06-13 14:34:01: 852 valid trees found in file: ../gene_trees/LBF/kp.c1c2.gt.LBF.medd.0.025.trees
2017-06-13 14:34:01: Start of calculation...please wait...
2017-06-13 14:34:01: 0.00% completed...
2017-06-13 14:34:03: 5.05% completed...
2017-06-13 14:34:05: 10.09% completed...
2017-06-13 14:34:06: 15.14% completed...
2017-06-13 14:34:07: 20.19% completed...
2017-06-13 14:34:08: 25.23% completed...
2017-06-13 14:34:09: 30.28% completed...
2017-06-13 14:34:09: 35.33% completed...
2017-06-13 14:34:10: 40.38% completed...
2017-06-13 14:34:10: 45.42% completed...
2017-06-13 14:34:10: 50.47% completed...
2017-06-13 14:34:11: 55.52% completed...
2017-06-13 14:34:11: 60.56% completed...
2017-06-13 14:34:11: 65.61% completed...
2017-06-13 14:34:12: 70.66% completed...
2017-06-13 14:34:12: 75.70% completed...
2017-06-13 14:34:12: 80.75% completed...
2017-06-13 14:34:12: 85.80% completed...
2017-06-13 14:34:13: 90.85% completed...
2017-06-13 14:34:13: 95.89% completed...
2017-06-13 14:34:13: 100.00% completed.
2017-06-13 14:34:13: End of calculation.
2017-06-13 14:34:13: Total calculation time: 12427 ms.
done
computing RF ...
done
comparing quartet score to original ...
Splits	Found	100	Total	100	Frac	1	MaxLnDf	0.594	Ratio	0.95	MaxBtDf	4.42
done
comparing local support to original ...
Splits	Found	100	Total	100	Frac	1	MaxLnDf	0.594	Ratio	0.95	MaxBtDf	4.42
done
All done!
