quartet scoring by astral ...
done
computing local support by astral ...
done
extracting occupancy ...
done
computing MS ...
TreeCmp version 1.0-b291

Active options:
Type of the analysis:  one-to-all comparison mode (-r)
Metrics:
  1. MatchingSplit (ms)
Input file: ../gene_trees/LBF/kp.c1c2.gt.LBF.sts.0.025.trees
Output file: ../results/kp.c1c2.sts.0.025.MS.dat
Additional options:
P - Prune compared trees if needed (trees can have different leaf sets).
-----
2017-06-13 16:51:52: Start of scanning input file: ../gene_trees/LBF/kp.c1c2.gt.LBF.sts.0.025.trees
2017-06-13 16:51:52: End of scanning input file: ../gene_trees/LBF/kp.c1c2.gt.LBF.sts.0.025.trees
2017-06-13 16:51:52: 852 valid trees found in file: ../gene_trees/LBF/kp.c1c2.gt.LBF.sts.0.025.trees
2017-06-13 16:51:52: Start of calculation...please wait...
2017-06-13 16:51:52: 0.00% completed...
2017-06-13 16:51:52: 5.05% completed...
2017-06-13 16:51:53: 10.09% completed...
2017-06-13 16:51:53: 15.14% completed...
2017-06-13 16:51:53: 20.19% completed...
2017-06-13 16:51:53: 25.23% completed...
2017-06-13 16:51:53: 30.28% completed...
2017-06-13 16:51:53: 35.33% completed...
2017-06-13 16:51:53: 40.38% completed...
2017-06-13 16:51:53: 45.42% completed...
2017-06-13 16:51:53: 50.47% completed...
2017-06-13 16:51:53: 55.52% completed...
2017-06-13 16:51:53: 60.56% completed...
2017-06-13 16:51:53: 65.61% completed...
2017-06-13 16:51:53: 70.66% completed...
2017-06-13 16:51:53: 75.70% completed...
2017-06-13 16:51:53: 80.75% completed...
2017-06-13 16:51:53: 85.80% completed...
2017-06-13 16:51:53: 90.85% completed...
2017-06-13 16:51:53: 95.89% completed...
2017-06-13 16:51:53: 100.00% completed.
2017-06-13 16:51:53: End of calculation.
2017-06-13 16:51:53: Total calculation time: 1200 ms.
done
computing RF ...
done
comparing quartet score to original ...
Splits	Found	100	Total	100	Frac	1	MaxLnDf	0.38	Ratio	0.964	MaxBtDf	2.96
done
comparing local support to original ...
Splits	Found	100	Total	100	Frac	1	MaxLnDf	0.38	Ratio	0.964	MaxBtDf	2.96
done
All done!
