quartet scoring by astral ...
done
computing local support by astral ...
done
extracting occupancy ...
done
computing MS ...
TreeCmp version 1.0-b291

Active options:
Type of the analysis:  one-to-all comparison mode (-r)
Metrics:
  1. MatchingSplit (ms)
Input file: ../gene_trees/LBF/kp.c1c2.gt.LBF.med.0.05.trees
Output file: ../results/kp.c1c2.med.0.05.MS.dat
Additional options:
P - Prune compared trees if needed (trees can have different leaf sets).
-----
2017-06-14 23:55:59: Start of scanning input file: ../gene_trees/LBF/kp.c1c2.gt.LBF.med.0.05.trees
2017-06-14 23:56:01: End of scanning input file: ../gene_trees/LBF/kp.c1c2.gt.LBF.med.0.05.trees
2017-06-14 23:56:01: 852 valid trees found in file: ../gene_trees/LBF/kp.c1c2.gt.LBF.med.0.05.trees
2017-06-14 23:56:01: Start of calculation...please wait...
2017-06-14 23:56:01: 0.00% completed...
2017-06-14 23:56:02: 5.05% completed...
2017-06-14 23:56:02: 10.09% completed...
2017-06-14 23:56:03: 15.14% completed...
2017-06-14 23:56:03: 20.19% completed...
2017-06-14 23:56:03: 25.23% completed...
2017-06-14 23:56:03: 30.28% completed...
2017-06-14 23:56:03: 35.33% completed...
2017-06-14 23:56:04: 40.38% completed...
2017-06-14 23:56:04: 45.42% completed...
2017-06-14 23:56:04: 50.47% completed...
2017-06-14 23:56:04: 55.52% completed...
2017-06-14 23:56:04: 60.56% completed...
2017-06-14 23:56:04: 65.61% completed...
2017-06-14 23:56:04: 70.66% completed...
2017-06-14 23:56:05: 75.70% completed...
2017-06-14 23:56:05: 80.75% completed...
2017-06-14 23:56:05: 85.80% completed...
2017-06-14 23:56:05: 90.85% completed...
2017-06-14 23:56:05: 95.89% completed...
2017-06-14 23:56:05: 100.00% completed.
2017-06-14 23:56:05: End of calculation.
2017-06-14 23:56:05: Total calculation time: 4054 ms.
done
computing RF ...
done
comparing quartet score to original ...
Splits	Found	100	Total	100	Frac	1	MaxLnDf	0.889	Ratio	0.932	MaxBtDf	5.14
done
comparing local support to original ...
Splits	Found	100	Total	100	Frac	1	MaxLnDf	0.889	Ratio	0.932	MaxBtDf	5.14
done
All done!
