filtering ...
Loading required package: BMS
/Users/uym2/my_gits/LongBranchFiltering/find_threshold_kernel.R
done
quartet scoring by astral ...
done
computing local support by astral ...
done
extracting occupancy ...
done
computing MS ...
TreeCmp version 1.0-b291

Active options:
Type of the analysis:  one-to-all comparison mode (-r)
Metrics:
  1. MatchingSplit (ms)
Input file: ../gene_trees/LBF/mm.gt.LBF.medd.0.05.trees
Output file: ../results/mm.medd.0.05.MS.dat
Additional options:
P - Prune compared trees if needed (trees can have different leaf sets).
-----
2017-06-13 14:01:21: Start of scanning input file: ../gene_trees/LBF/mm.gt.LBF.medd.0.05.trees
2017-06-13 14:01:23: End of scanning input file: ../gene_trees/LBF/mm.gt.LBF.medd.0.05.trees
2017-06-13 14:01:23: 424 valid trees found in file: ../gene_trees/LBF/mm.gt.LBF.medd.0.05.trees
2017-06-13 14:01:23: Start of calculation...please wait...
2017-06-13 14:01:23: 0.00% completed...
2017-06-13 14:01:24: 5.19% completed...
2017-06-13 14:01:24: 10.38% completed...
2017-06-13 14:01:25: 15.57% completed...
2017-06-13 14:01:25: 20.75% completed...
2017-06-13 14:01:25: 25.94% completed...
2017-06-13 14:01:26: 31.13% completed...
2017-06-13 14:01:26: 36.32% completed...
2017-06-13 14:01:26: 41.51% completed...
2017-06-13 14:01:26: 46.70% completed...
2017-06-13 14:01:26: 51.89% completed...
2017-06-13 14:01:26: 57.08% completed...
2017-06-13 14:01:27: 62.26% completed...
2017-06-13 14:01:27: 67.45% completed...
2017-06-13 14:01:27: 72.64% completed...
2017-06-13 14:01:27: 77.83% completed...
2017-06-13 14:01:27: 83.02% completed...
2017-06-13 14:01:27: 88.21% completed...
2017-06-13 14:01:27: 93.40% completed...
2017-06-13 14:01:28: 98.58% completed...
2017-06-13 14:01:28: 100.00% completed.
2017-06-13 14:01:28: End of calculation.
2017-06-13 14:01:28: Total calculation time: 4769 ms.
done
computing RF ...
done
comparing quartet score to original ...
Splits	Found	34	Total	34	Frac	1	MaxLnDf	0.755	Ratio	0.985	MaxBtDf	1.29
done
comparing local support to original ...
Splits	Found	34	Total	34	Frac	1	MaxLnDf	0.755	Ratio	0.985	MaxBtDf	1.29
done
All done!
