filtering ...
/Users/uym2/my_gits/LongBranchFiltering/find_threshold_lnorm.R
done
quartet scoring by astral ...
done
computing local support by astral ...
done
extracting occupancy ...
done
computing MS ...
TreeCmp version 1.0-b291

Active options:
Type of the analysis:  one-to-all comparison mode (-r)
Metrics:
  1. MatchingSplit (ms)
Input file: ../gene_trees/LBF/mm.gt.LBF.medl.0.1.trees
Output file: ../results/mm.medl.0.1.MS.dat
Additional options:
P - Prune compared trees if needed (trees can have different leaf sets).
-----
2017-06-13 14:01:03: Start of scanning input file: ../gene_trees/LBF/mm.gt.LBF.medl.0.1.trees
2017-06-13 14:01:05: End of scanning input file: ../gene_trees/LBF/mm.gt.LBF.medl.0.1.trees
2017-06-13 14:01:05: 424 valid trees found in file: ../gene_trees/LBF/mm.gt.LBF.medl.0.1.trees
2017-06-13 14:01:05: Start of calculation...please wait...
2017-06-13 14:01:05: 0.00% completed...
2017-06-13 14:01:06: 5.19% completed...
2017-06-13 14:01:06: 10.38% completed...
2017-06-13 14:01:06: 15.57% completed...
2017-06-13 14:01:06: 20.75% completed...
2017-06-13 14:01:07: 25.94% completed...
2017-06-13 14:01:07: 31.13% completed...
2017-06-13 14:01:07: 36.32% completed...
2017-06-13 14:01:07: 41.51% completed...
2017-06-13 14:01:08: 46.70% completed...
2017-06-13 14:01:08: 51.89% completed...
2017-06-13 14:01:08: 57.08% completed...
2017-06-13 14:01:08: 62.26% completed...
2017-06-13 14:01:09: 67.45% completed...
2017-06-13 14:01:09: 72.64% completed...
2017-06-13 14:01:09: 77.83% completed...
2017-06-13 14:01:09: 83.02% completed...
2017-06-13 14:01:09: 88.21% completed...
2017-06-13 14:01:09: 93.40% completed...
2017-06-13 14:01:09: 98.58% completed...
2017-06-13 14:01:09: 100.00% completed.
2017-06-13 14:01:09: End of calculation.
2017-06-13 14:01:09: Total calculation time: 4534 ms.
done
computing RF ...
done
comparing quartet score to original ...
Cannot read tree 1 from ../species_trees/mm.astral.LBF.medl.0.1.score.tre at /Users/uym2/repositories/global/src/perl/tree_comp_morgan/CompareTree.pl line 60.
done
comparing local support to original ...
Cannot read tree 1 from ../species_trees/mm.astral.LBF.medl.0.1.score.tre at /Users/uym2/repositories/global/src/perl/tree_comp_morgan/CompareTree.pl line 60.
done
All done!
