filtering ...
Loading required package: BMS
/Users/uym2/my_gits/LongBranchFiltering/find_threshold_lkernel.R
done
quartet scoring by astral ...
done
computing local support by astral ...
done
extracting occupancy ...
done
computing MS ...
TreeCmp version 1.0-b291

Active options:
Type of the analysis:  one-to-all comparison mode (-r)
Metrics:
  1. MatchingSplit (ms)
Input file: ../gene_trees/LBF/mm.gt.LBF.med.0.01.trees
Output file: ../results/mm.med.0.01.MS.dat
Additional options:
P - Prune compared trees if needed (trees can have different leaf sets).
-----
2017-06-13 23:07:00: Start of scanning input file: ../gene_trees/LBF/mm.gt.LBF.med.0.01.trees
2017-06-13 23:07:00: End of scanning input file: ../gene_trees/LBF/mm.gt.LBF.med.0.01.trees
2017-06-13 23:07:00: 848 valid trees found in file: ../gene_trees/LBF/mm.gt.LBF.med.0.01.trees
2017-06-13 23:07:00: Start of calculation...please wait...
2017-06-13 23:07:00: 0.00% completed...
2017-06-13 23:07:00: 5.07% completed...
2017-06-13 23:07:00: 10.14% completed...
2017-06-13 23:07:00: 15.21% completed...
2017-06-13 23:07:00: 20.28% completed...
2017-06-13 23:07:00: 25.35% completed...
2017-06-13 23:07:00: 30.42% completed...
2017-06-13 23:07:00: 35.50% completed...
2017-06-13 23:07:00: 40.57% completed...
2017-06-13 23:07:00: 45.64% completed...
2017-06-13 23:07:00: 50.71% completed...
2017-06-13 23:07:00: 55.78% completed...
2017-06-13 23:07:00: 60.85% completed...
2017-06-13 23:07:00: 65.92% completed...
2017-06-13 23:07:00: 70.99% completed...
2017-06-13 23:07:00: 76.06% completed...
2017-06-13 23:07:00: 81.13% completed...
2017-06-13 23:07:00: 86.20% completed...
2017-06-13 23:07:00: 91.27% completed...
2017-06-13 23:07:01: 96.34% completed...
2017-06-13 23:07:01: 100.00% completed.
2017-06-13 23:07:01: End of calculation.
2017-06-13 23:07:01: Total calculation time: 749 ms.
done
computing RF ...
done
comparing quartet score to original ...
Splits	Found	34	Total	34	Frac	1	MaxLnDf	0.319	Ratio	0.975	MaxBtDf	0.83
done
comparing local support to original ...
Splits	Found	34	Total	34	Frac	1	MaxLnDf	0.319	Ratio	0.975	MaxBtDf	0.83
done
All done!
