filtering ...
Loading required package: BMS
/Users/uym2/my_gits/LongBranchFiltering/find_threshold_kernel.R
done
quartet scoring by astral ...
done
computing local support by astral ...
done
extracting occupancy ...
done
computing MS ...
TreeCmp version 1.0-b291

Active options:
Type of the analysis:  one-to-all comparison mode (-r)
Metrics:
  1. MatchingSplit (ms)
Input file: ../gene_trees/LBF/mm.gt.LBF.stsd.0.025.trees
Output file: ../results/mm.stsd.0.025.MS.dat
Additional options:
P - Prune compared trees if needed (trees can have different leaf sets).
-----
2017-06-13 14:01:23: Start of scanning input file: ../gene_trees/LBF/mm.gt.LBF.stsd.0.025.trees
2017-06-13 14:01:25: End of scanning input file: ../gene_trees/LBF/mm.gt.LBF.stsd.0.025.trees
2017-06-13 14:01:25: 424 valid trees found in file: ../gene_trees/LBF/mm.gt.LBF.stsd.0.025.trees
2017-06-13 14:01:25: Start of calculation...please wait...
2017-06-13 14:01:25: 0.00% completed...
2017-06-13 14:01:26: 5.19% completed...
2017-06-13 14:01:27: 10.38% completed...
2017-06-13 14:01:27: 15.57% completed...
2017-06-13 14:01:27: 20.75% completed...
2017-06-13 14:01:28: 25.94% completed...
2017-06-13 14:01:28: 31.13% completed...
2017-06-13 14:01:28: 36.32% completed...
2017-06-13 14:01:28: 41.51% completed...
2017-06-13 14:01:28: 46.70% completed...
2017-06-13 14:01:28: 51.89% completed...
2017-06-13 14:01:29: 57.08% completed...
2017-06-13 14:01:29: 62.26% completed...
2017-06-13 14:01:29: 67.45% completed...
2017-06-13 14:01:29: 72.64% completed...
2017-06-13 14:01:29: 77.83% completed...
2017-06-13 14:01:29: 83.02% completed...
2017-06-13 14:01:29: 88.21% completed...
2017-06-13 14:01:29: 93.40% completed...
2017-06-13 14:01:29: 98.58% completed...
2017-06-13 14:01:29: 100.00% completed.
2017-06-13 14:01:29: End of calculation.
2017-06-13 14:01:29: Total calculation time: 4399 ms.
done
computing RF ...
done
comparing quartet score to original ...
Splits	Found	34	Total	34	Frac	1	MaxLnDf	0.591	Ratio	0.988	MaxBtDf	0.61
done
comparing local support to original ...
Splits	Found	34	Total	34	Frac	1	MaxLnDf	0.591	Ratio	0.988	MaxBtDf	0.61
done
All done!
