pruning ...
done
quartet scoring by astral ...
done
computing local support by astral ...
done
extracting occupancy ...
done
computing MS ...
TreeCmp version 1.0-b291

Active options:
Type of the analysis:  one-to-all comparison mode (-r)
Metrics:
  1. MatchingSplit (ms)
Input file: ../gene_trees/randprune/xen.rs.gt.randprune.med.0.1.trees
Output file: ../results/xen.rs.randprune.med.0.1.MS.dat
Additional options:
P - Prune compared trees if needed (trees can have different leaf sets).
-----
2017-06-14 22:43:54: Start of scanning input file: ../gene_trees/randprune/xen.rs.gt.randprune.med.0.1.trees
2017-06-14 22:43:54: End of scanning input file: ../gene_trees/randprune/xen.rs.gt.randprune.med.0.1.trees
2017-06-14 22:43:54: 393 valid trees found in file: ../gene_trees/randprune/xen.rs.gt.randprune.med.0.1.trees
2017-06-14 22:43:54: Start of calculation...please wait...
2017-06-14 22:43:54: 0.00% completed...
2017-06-14 22:43:54: 5.09% completed...
2017-06-14 22:43:55: 10.18% completed...
2017-06-14 22:43:55: 15.27% completed...
2017-06-14 22:43:55: 20.36% completed...
2017-06-14 22:43:55: 25.45% completed...
2017-06-14 22:43:55: 30.53% completed...
2017-06-14 22:43:55: 35.62% completed...
2017-06-14 22:43:55: 40.71% completed...
2017-06-14 22:43:55: 45.80% completed...
2017-06-14 22:43:55: 50.89% completed...
2017-06-14 22:43:55: 55.98% completed...
2017-06-14 22:43:55: 61.07% completed...
2017-06-14 22:43:55: 66.16% completed...
2017-06-14 22:43:55: 71.25% completed...
2017-06-14 22:43:55: 76.34% completed...
2017-06-14 22:43:55: 81.42% completed...
2017-06-14 22:43:55: 86.51% completed...
2017-06-14 22:43:55: 91.60% completed...
2017-06-14 22:43:55: 96.69% completed...
2017-06-14 22:43:55: 100.00% completed.
2017-06-14 22:43:55: End of calculation.
2017-06-14 22:43:55: Total calculation time: 1114 ms.
done
computing RF ...
done
comparing quartet score to original ...
Splits	Found	23	Total	23	Frac	1	MaxLnDf	0.08	Ratio	1.01	MaxBtDf	2.42
done
comparing local support to original ...
Splits	Found	23	Total	23	Frac	1	MaxLnDf	0.08	Ratio	1.01	MaxBtDf	2.42
done
All done!
