TreeCmp version 1.0-b291

Active options:
Type of the analysis:  one-to-all comparison mode (-r)
Metrics:
  1. MatchingSplit (ms)
Input file: ../gene_trees/rogueNarok/xen.can.RnR.L3quart.trees
Output file: ../results/xen.can.RnR.L3quart.MS.dat
Additional options:
P - Prune compared trees if needed (trees can have different leaf sets).
-----
2017-06-14 18:53:13: Start of scanning input file: ../gene_trees/rogueNarok/xen.can.RnR.L3quart.trees
2017-06-14 18:53:14: End of scanning input file: ../gene_trees/rogueNarok/xen.can.RnR.L3quart.trees
2017-06-14 18:53:14: 212 valid trees found in file: ../gene_trees/rogueNarok/xen.can.RnR.L3quart.trees
2017-06-14 18:53:14: Start of calculation...please wait...
2017-06-14 18:53:14: 0.00% completed...
2017-06-14 18:53:14: 5.19% completed...
2017-06-14 18:53:15: 10.38% completed...
2017-06-14 18:53:15: 15.57% completed...
2017-06-14 18:53:15: 20.75% completed...
2017-06-14 18:53:15: 25.94% completed...
2017-06-14 18:53:15: 31.13% completed...
2017-06-14 18:53:15: 36.32% completed...
2017-06-14 18:53:15: 41.51% completed...
2017-06-14 18:53:15: 46.70% completed...
2017-06-14 18:53:15: 51.89% completed...
2017-06-14 18:53:15: 57.08% completed...
2017-06-14 18:53:15: 62.26% completed...
2017-06-14 18:53:16: 67.45% completed...
2017-06-14 18:53:16: 72.64% completed...
2017-06-14 18:53:16: 77.83% completed...
2017-06-14 18:53:16: 83.02% completed...
2017-06-14 18:53:16: 88.21% completed...
2017-06-14 18:53:16: 93.40% completed...
2017-06-14 18:53:16: 98.58% completed...
2017-06-14 18:53:16: 100.00% completed.
2017-06-14 18:53:16: End of calculation.
2017-06-14 18:53:16: Total calculation time: 2244 ms.
Splits	Found	75	Total	75	Frac	1	MaxLnDf	0.549	Ratio	0.979	MaxBtDf	1.89
