pruning ...
Traceback (most recent call last):
  File "count_removal.py", line 10, in <module>
    with open(infile,"r") as f:
IOError: [Errno 2] No such file or directory: '../gene_trees/LBF/xen.rs.gt.LBF.med.0.01.removal.log'
done
quartet scoring by astral ...
done
computing local support by astral ...
done
extracting occupancy ...
done
computing MS ...
TreeCmp version 1.0-b291

Active options:
Type of the analysis:  one-to-all comparison mode (-r)
Metrics:
  1. MatchingSplit (ms)
Input file: ../gene_trees/randprune/xen.rs.gt.randprune.med.0.01.trees
Output file: ../results/xen.rs.randprune.med.0.01.MS.dat
Additional options:
P - Prune compared trees if needed (trees can have different leaf sets).
-----
2017-06-14 22:29:26: Start of scanning input file: ../gene_trees/randprune/xen.rs.gt.randprune.med.0.01.trees
2017-06-14 22:29:26: End of scanning input file: ../gene_trees/randprune/xen.rs.gt.randprune.med.0.01.trees
2017-06-14 22:29:26: 0 valid trees found in file: ../gene_trees/randprune/xen.rs.gt.randprune.med.0.01.trees
2017-06-14 22:29:26: Start of calculation...please wait...
2017-06-14 22:29:26: 0.00% completed...
done
computing RF ...
done
comparing quartet score to original ...
Cannot read ../species_trees/xen.rs.astral.score.tre at /Users/uym2/repositories/global/src/perl/tree_comp_morgan/CompareTree.pl line 47.
done
comparing local support to original ...
Cannot read ../species_trees/xen.rs.astral.score.tre at /Users/uym2/repositories/global/src/perl/tree_comp_morgan/CompareTree.pl line 47.
done
All done!
