TreeCmp version 1.0-b291

Active options:
Type of the analysis:  one-to-all comparison mode (-r)
Metrics:
  1. MatchingSplit (ms)
Input file: ../gene_trees/rogueNarok/xen.can.RnR.Lhalf.trees
Output file: ../results/xen.can.RnR.Lhalf.MS.dat
Additional options:
P - Prune compared trees if needed (trees can have different leaf sets).
-----
2017-06-14 18:53:12: Start of scanning input file: ../gene_trees/rogueNarok/xen.can.RnR.Lhalf.trees
2017-06-14 18:53:12: End of scanning input file: ../gene_trees/rogueNarok/xen.can.RnR.Lhalf.trees
2017-06-14 18:53:12: 212 valid trees found in file: ../gene_trees/rogueNarok/xen.can.RnR.Lhalf.trees
2017-06-14 18:53:12: Start of calculation...please wait...
2017-06-14 18:53:12: 0.00% completed...
2017-06-14 18:53:13: 5.19% completed...
2017-06-14 18:53:13: 10.38% completed...
2017-06-14 18:53:13: 15.57% completed...
2017-06-14 18:53:13: 20.75% completed...
2017-06-14 18:53:13: 25.94% completed...
2017-06-14 18:53:14: 31.13% completed...
2017-06-14 18:53:14: 36.32% completed...
2017-06-14 18:53:14: 41.51% completed...
2017-06-14 18:53:14: 46.70% completed...
2017-06-14 18:53:14: 51.89% completed...
2017-06-14 18:53:14: 57.08% completed...
2017-06-14 18:53:14: 62.26% completed...
2017-06-14 18:53:15: 67.45% completed...
2017-06-14 18:53:15: 72.64% completed...
2017-06-14 18:53:15: 77.83% completed...
2017-06-14 18:53:15: 83.02% completed...
2017-06-14 18:53:15: 88.21% completed...
2017-06-14 18:53:15: 93.40% completed...
2017-06-14 18:53:15: 98.58% completed...
2017-06-14 18:53:15: 100.00% completed.
2017-06-14 18:53:15: End of calculation.
2017-06-14 18:53:15: Total calculation time: 2731 ms.
Splits	Found	75	Total	75	Frac	1	MaxLnDf	0.78	Ratio	0.962	MaxBtDf	3.1
