TreeCmp version 1.0-b291

Active options:
Type of the analysis:  one-to-all comparison mode (-r)
Metrics:
  1. MatchingSplit (ms)
Input file: ../gene_trees/rogueNarok/xen.rs.RnR.L3quart.trees
Output file: ../results/xen.rs.RnR.L3quart.MS.dat
Additional options:
P - Prune compared trees if needed (trees can have different leaf sets).
-----
2017-06-14 22:29:25: Start of scanning input file: ../gene_trees/rogueNarok/xen.rs.RnR.L3quart.trees
2017-06-14 22:29:27: End of scanning input file: ../gene_trees/rogueNarok/xen.rs.RnR.L3quart.trees
2017-06-14 22:29:27: 393 valid trees found in file: ../gene_trees/rogueNarok/xen.rs.RnR.L3quart.trees
2017-06-14 22:29:27: Start of calculation...please wait...
2017-06-14 22:29:27: 0.00% completed...
2017-06-14 22:29:27: 5.09% completed...
2017-06-14 22:29:28: 10.18% completed...
2017-06-14 22:29:28: 15.27% completed...
2017-06-14 22:29:28: 20.36% completed...
2017-06-14 22:29:28: 25.45% completed...
2017-06-14 22:29:28: 30.53% completed...
2017-06-14 22:29:28: 35.62% completed...
2017-06-14 22:29:28: 40.71% completed...
2017-06-14 22:29:29: 45.80% completed...
2017-06-14 22:29:29: 50.89% completed...
2017-06-14 22:29:29: 55.98% completed...
2017-06-14 22:29:29: 61.07% completed...
2017-06-14 22:29:29: 66.16% completed...
2017-06-14 22:29:29: 71.25% completed...
2017-06-14 22:29:29: 76.34% completed...
2017-06-14 22:29:29: 81.42% completed...
2017-06-14 22:29:29: 86.51% completed...
2017-06-14 22:29:30: 91.60% completed...
2017-06-14 22:29:30: 96.69% completed...
2017-06-14 22:29:30: 100.00% completed.
2017-06-14 22:29:30: End of calculation.
2017-06-14 22:29:30: Total calculation time: 2668 ms.
Cannot read ../species_trees/xen.rs.astral.score.tre at /Users/uym2/repositories/global/src/perl/tree_comp_morgan/CompareTree.pl line 47.
