computing Astral species tree
done
computing quartet score by astral ...
done
computing local support by astral ...
done
extracting occupancy ...
done
computing MS ...
TreeCmp version 1.0-b291

Active options:
Type of the analysis:  one-to-all comparison mode (-r)
Metrics:
  1. MatchingSplit (ms)
Input file: ../gene_trees/original/xen.rs.gt.trees
Output file: ../results/xen.rs.org.MS.dat
Additional options:
P - Prune compared trees if needed (trees can have different leaf sets).
-----
2017-06-14 22:08:50: Start of scanning input file: ../gene_trees/original/xen.rs.gt.trees
2017-06-14 22:08:51: End of scanning input file: ../gene_trees/original/xen.rs.gt.trees
2017-06-14 22:08:51: 393 valid trees found in file: ../gene_trees/original/xen.rs.gt.trees
2017-06-14 22:08:51: Start of calculation...please wait...
2017-06-14 22:08:51: 0.00% completed...
2017-06-14 22:08:51: 5.09% completed...
2017-06-14 22:08:51: 10.18% completed...
2017-06-14 22:08:51: 15.27% completed...
2017-06-14 22:08:51: 20.36% completed...
2017-06-14 22:08:51: 25.45% completed...
2017-06-14 22:08:51: 30.53% completed...
2017-06-14 22:08:52: 35.62% completed...
2017-06-14 22:08:52: 40.71% completed...
2017-06-14 22:08:52: 45.80% completed...
2017-06-14 22:08:52: 50.89% completed...
2017-06-14 22:08:52: 55.98% completed...
2017-06-14 22:08:52: 61.07% completed...
2017-06-14 22:08:52: 66.16% completed...
2017-06-14 22:08:52: 71.25% completed...
2017-06-14 22:08:52: 76.34% completed...
2017-06-14 22:08:52: 81.42% completed...
2017-06-14 22:08:52: 86.51% completed...
2017-06-14 22:08:52: 91.60% completed...
2017-06-14 22:08:52: 96.69% completed...
2017-06-14 22:08:52: 100.00% completed.
2017-06-14 22:08:52: End of calculation.
2017-06-14 22:08:52: Total calculation time: 1603 ms.
done
computing RF ...
done
All done!
