pruning
astral scoring
extract occupancy
compute MS
TreeCmp version 1.0-b291

Active options:
Type of the analysis:  one-to-all comparison mode (-r)
Metrics:
  1. MatchingSplit (ms)
Input file: ../gene_trees/rooted_pruning/xen.rs.gt.trees.4.0.trees
Output file: ../results/xen.rs.trees.4.0.MS.dat
Additional options:
P - Prune compared trees if needed (trees can have different leaf sets).
-----
2017-06-14 22:33:53: Start of scanning input file: ../gene_trees/rooted_pruning/xen.rs.gt.trees.4.0.trees
2017-06-14 22:33:54: End of scanning input file: ../gene_trees/rooted_pruning/xen.rs.gt.trees.4.0.trees
2017-06-14 22:33:54: 393 valid trees found in file: ../gene_trees/rooted_pruning/xen.rs.gt.trees.4.0.trees
2017-06-14 22:33:54: Start of calculation...please wait...
2017-06-14 22:33:54: 0.00% completed...
2017-06-14 22:33:54: 5.09% completed...
2017-06-14 22:33:54: 10.18% completed...
2017-06-14 22:33:54: 15.27% completed...
2017-06-14 22:33:55: 20.36% completed...
2017-06-14 22:33:55: 25.45% completed...
2017-06-14 22:33:55: 30.53% completed...
2017-06-14 22:33:55: 35.62% completed...
2017-06-14 22:33:55: 40.71% completed...
2017-06-14 22:33:55: 45.80% completed...
2017-06-14 22:33:55: 50.89% completed...
2017-06-14 22:33:55: 55.98% completed...
2017-06-14 22:33:55: 61.07% completed...
2017-06-14 22:33:55: 66.16% completed...
2017-06-14 22:33:55: 71.25% completed...
2017-06-14 22:33:55: 76.34% completed...
2017-06-14 22:33:55: 81.42% completed...
2017-06-14 22:33:55: 86.51% completed...
2017-06-14 22:33:55: 91.60% completed...
2017-06-14 22:33:55: 96.69% completed...
2017-06-14 22:33:55: 100.00% completed.
2017-06-14 22:33:55: End of calculation.
2017-06-14 22:33:55: Total calculation time: 1288 ms.
compute RF
extract quartet support and branch lenghts
Splits	Found	23	Total	23	Frac	1	MaxLnDf	0.00557	Ratio	0.999	MaxBtDf	0.33
