astral scoring
extract occupancy
compute MS
TreeCmp version 1.0-b291

Active options:
Type of the analysis:  one-to-all comparison mode (-r)
Metrics:
  1. MatchingSplit (ms)
Input file: ../gene_trees/rooted_pruning/xen.can.gt.trees.3.0.trees
Output file: ../results/xen.can.trees.3.0.MS.dat
Additional options:
P - Prune compared trees if needed (trees can have different leaf sets).
-----
2017-06-14 18:09:03: Start of scanning input file: ../gene_trees/rooted_pruning/xen.can.gt.trees.3.0.trees
2017-06-14 18:09:04: End of scanning input file: ../gene_trees/rooted_pruning/xen.can.gt.trees.3.0.trees
2017-06-14 18:09:04: 212 valid trees found in file: ../gene_trees/rooted_pruning/xen.can.gt.trees.3.0.trees
2017-06-14 18:09:04: Start of calculation...please wait...
2017-06-14 18:09:04: 0.00% completed...
2017-06-14 18:09:04: 5.19% completed...
2017-06-14 18:09:04: 10.38% completed...
2017-06-14 18:09:04: 15.57% completed...
2017-06-14 18:09:05: 20.75% completed...
2017-06-14 18:09:05: 25.94% completed...
2017-06-14 18:09:05: 31.13% completed...
2017-06-14 18:09:05: 36.32% completed...
2017-06-14 18:09:05: 41.51% completed...
2017-06-14 18:09:05: 46.70% completed...
2017-06-14 18:09:05: 51.89% completed...
2017-06-14 18:09:05: 57.08% completed...
2017-06-14 18:09:05: 62.26% completed...
2017-06-14 18:09:06: 67.45% completed...
2017-06-14 18:09:06: 72.64% completed...
2017-06-14 18:09:06: 77.83% completed...
2017-06-14 18:09:06: 83.02% completed...
2017-06-14 18:09:06: 88.21% completed...
2017-06-14 18:09:06: 93.40% completed...
2017-06-14 18:09:06: 98.58% completed...
2017-06-14 18:09:06: 100.00% completed.
2017-06-14 18:09:06: End of calculation.
2017-06-14 18:09:06: Total calculation time: 2739 ms.
compute RF
extract quartet support and branch lenghts
Splits	Found	75	Total	75	Frac	1	MaxLnDf	0.951	Ratio	0.943	MaxBtDf	4.54
