quartet scoring by astral ...
computing local support by astral ...
done
extracting occupancy ...
done
computing MS ...
TreeCmp version 1.0-b291

Active options:
Type of the analysis:  one-to-all comparison mode (-r)
Metrics:
  1. MatchingSplit (ms)
Input file: ../gene_trees/LBF/xen.can.gt.LBF.med.0.1.trees
Output file: ../results/xen.can.med.0.1.MS.dat
Additional options:
P - Prune compared trees if needed (trees can have different leaf sets).
-----
2017-06-14 17:01:22: Start of scanning input file: ../gene_trees/LBF/xen.can.gt.LBF.med.0.1.trees
2017-06-14 17:01:23: End of scanning input file: ../gene_trees/LBF/xen.can.gt.LBF.med.0.1.trees
2017-06-14 17:01:23: 212 valid trees found in file: ../gene_trees/LBF/xen.can.gt.LBF.med.0.1.trees
2017-06-14 17:01:23: Start of calculation...please wait...
2017-06-14 17:01:23: 0.00% completed...
2017-06-14 17:01:23: 5.19% completed...
2017-06-14 17:01:24: 10.38% completed...
2017-06-14 17:01:24: 15.57% completed...
2017-06-14 17:01:24: 20.75% completed...
2017-06-14 17:01:24: 25.94% completed...
2017-06-14 17:01:24: 31.13% completed...
2017-06-14 17:01:24: 36.32% completed...
2017-06-14 17:01:25: 41.51% completed...
2017-06-14 17:01:25: 46.70% completed...
2017-06-14 17:01:25: 51.89% completed...
2017-06-14 17:01:25: 57.08% completed...
2017-06-14 17:01:25: 62.26% completed...
2017-06-14 17:01:25: 67.45% completed...
2017-06-14 17:01:26: 72.64% completed...
2017-06-14 17:01:26: 77.83% completed...
2017-06-14 17:01:26: 83.02% completed...
2017-06-14 17:01:26: 88.21% completed...
2017-06-14 17:01:26: 93.40% completed...
2017-06-14 17:01:26: 98.58% completed...
2017-06-14 17:01:26: 100.00% completed.
2017-06-14 17:01:26: End of calculation.
2017-06-14 17:01:26: Total calculation time: 3110 ms.
done
computing RF ...
done
comparing quartet score to original ...
Splits	Found	75	Total	75	Frac	1	MaxLnDf	1.56	Ratio	0.901	MaxBtDf	5.93
done
comparing local support to original ...
Splits	Found	75	Total	75	Frac	1	MaxLnDf	1.56	Ratio	0.901	MaxBtDf	5.93
done
All done!
