pruning
astral scoring
extract occupancy
compute MS
TreeCmp version 1.0-b291

Active options:
Type of the analysis:  one-to-all comparison mode (-r)
Metrics:
  1. MatchingSplit (ms)
Input file: ../gene_trees/rooted_pruning/xen.rs.gt.trees.2.0.trees
Output file: ../results/xen.rs.trees.2.0.MS.dat
Additional options:
P - Prune compared trees if needed (trees can have different leaf sets).
-----
2017-06-14 22:33:52: Start of scanning input file: ../gene_trees/rooted_pruning/xen.rs.gt.trees.2.0.trees
2017-06-14 22:33:52: End of scanning input file: ../gene_trees/rooted_pruning/xen.rs.gt.trees.2.0.trees
2017-06-14 22:33:52: 393 valid trees found in file: ../gene_trees/rooted_pruning/xen.rs.gt.trees.2.0.trees
2017-06-14 22:33:52: Start of calculation...please wait...
2017-06-14 22:33:52: 0.00% completed...
2017-06-14 22:33:52: 5.09% completed...
2017-06-14 22:33:52: 10.18% completed...
2017-06-14 22:33:52: 15.27% completed...
2017-06-14 22:33:53: 20.36% completed...
2017-06-14 22:33:53: 25.45% completed...
2017-06-14 22:33:53: 30.53% completed...
2017-06-14 22:33:53: 35.62% completed...
2017-06-14 22:33:53: 40.71% completed...
2017-06-14 22:33:53: 45.80% completed...
2017-06-14 22:33:53: 50.89% completed...
2017-06-14 22:33:53: 55.98% completed...
2017-06-14 22:33:53: 61.07% completed...
2017-06-14 22:33:53: 66.16% completed...
2017-06-14 22:33:53: 71.25% completed...
2017-06-14 22:33:53: 76.34% completed...
2017-06-14 22:33:53: 81.42% completed...
2017-06-14 22:33:53: 86.51% completed...
2017-06-14 22:33:54: 91.60% completed...
2017-06-14 22:33:54: 96.69% completed...
2017-06-14 22:33:54: 100.00% completed.
2017-06-14 22:33:54: End of calculation.
2017-06-14 22:33:54: Total calculation time: 1571 ms.
compute RF
extract quartet support and branch lenghts
Splits	Found	23	Total	23	Frac	1	MaxLnDf	0.483	Ratio	1.03	MaxBtDf	3.15
