filtering ...
Loading required package: BMS
/Users/uym2/my_gits/LongBranchFiltering/find_threshold_lkernel.R
done
quartet scoring by astral ...
done
computing local support by astral ...
done
extracting occupancy ...
done
computing MS ...
TreeCmp version 1.0-b291

Active options:
Type of the analysis:  one-to-all comparison mode (-r)
Metrics:
  1. MatchingSplit (ms)
Input file: ../gene_trees/LBF/xen.rs.gt.LBF.med.0.01.trees
Output file: ../results/xen.rs.med.0.01.MS.dat
Additional options:
P - Prune compared trees if needed (trees can have different leaf sets).
-----
2017-06-14 22:30:22: Start of scanning input file: ../gene_trees/LBF/xen.rs.gt.LBF.med.0.01.trees
2017-06-14 22:30:23: End of scanning input file: ../gene_trees/LBF/xen.rs.gt.LBF.med.0.01.trees
2017-06-14 22:30:23: 393 valid trees found in file: ../gene_trees/LBF/xen.rs.gt.LBF.med.0.01.trees
2017-06-14 22:30:23: Start of calculation...please wait...
2017-06-14 22:30:23: 0.00% completed...
2017-06-14 22:30:24: 5.09% completed...
2017-06-14 22:30:24: 10.18% completed...
2017-06-14 22:30:24: 15.27% completed...
2017-06-14 22:30:24: 20.36% completed...
2017-06-14 22:30:25: 25.45% completed...
2017-06-14 22:30:25: 30.53% completed...
2017-06-14 22:30:25: 35.62% completed...
2017-06-14 22:30:25: 40.71% completed...
2017-06-14 22:30:25: 45.80% completed...
2017-06-14 22:30:25: 50.89% completed...
2017-06-14 22:30:25: 55.98% completed...
2017-06-14 22:30:25: 61.07% completed...
2017-06-14 22:30:25: 66.16% completed...
2017-06-14 22:30:26: 71.25% completed...
2017-06-14 22:30:26: 76.34% completed...
2017-06-14 22:30:26: 81.42% completed...
2017-06-14 22:30:26: 86.51% completed...
2017-06-14 22:30:26: 91.60% completed...
2017-06-14 22:30:26: 96.69% completed...
2017-06-14 22:30:26: 100.00% completed.
2017-06-14 22:30:26: End of calculation.
2017-06-14 22:30:26: Total calculation time: 2832 ms.
done
computing RF ...
done
comparing quartet score to original ...
Cannot read ../species_trees/xen.rs.astral.score.tre at /Users/uym2/repositories/global/src/perl/tree_comp_morgan/CompareTree.pl line 47.
done
comparing local support to original ...
Cannot read ../species_trees/xen.rs.astral.score.tre at /Users/uym2/repositories/global/src/perl/tree_comp_morgan/CompareTree.pl line 47.
done
All done!
