pruning
astral scoring
extract occupancy
compute MS
TreeCmp version 1.0-b291

Active options:
Type of the analysis:  one-to-all comparison mode (-r)
Metrics:
  1. MatchingSplit (ms)
Input file: ../gene_trees/rooted_pruning/xen.rs.gt.trees.3.0.trees
Output file: ../results/xen.rs.trees.3.0.MS.dat
Additional options:
P - Prune compared trees if needed (trees can have different leaf sets).
-----
2017-06-14 22:33:47: Start of scanning input file: ../gene_trees/rooted_pruning/xen.rs.gt.trees.3.0.trees
2017-06-14 22:33:48: End of scanning input file: ../gene_trees/rooted_pruning/xen.rs.gt.trees.3.0.trees
2017-06-14 22:33:48: 393 valid trees found in file: ../gene_trees/rooted_pruning/xen.rs.gt.trees.3.0.trees
2017-06-14 22:33:48: Start of calculation...please wait...
2017-06-14 22:33:48: 0.00% completed...
2017-06-14 22:33:48: 5.09% completed...
2017-06-14 22:33:48: 10.18% completed...
2017-06-14 22:33:48: 15.27% completed...
2017-06-14 22:33:48: 20.36% completed...
2017-06-14 22:33:48: 25.45% completed...
2017-06-14 22:33:48: 30.53% completed...
2017-06-14 22:33:48: 35.62% completed...
2017-06-14 22:33:48: 40.71% completed...
2017-06-14 22:33:48: 45.80% completed...
2017-06-14 22:33:49: 50.89% completed...
2017-06-14 22:33:49: 55.98% completed...
2017-06-14 22:33:49: 61.07% completed...
2017-06-14 22:33:49: 66.16% completed...
2017-06-14 22:33:49: 71.25% completed...
2017-06-14 22:33:49: 76.34% completed...
2017-06-14 22:33:49: 81.42% completed...
2017-06-14 22:33:49: 86.51% completed...
2017-06-14 22:33:49: 91.60% completed...
2017-06-14 22:33:49: 96.69% completed...
2017-06-14 22:33:49: 100.00% completed.
2017-06-14 22:33:49: End of calculation.
2017-06-14 22:33:49: Total calculation time: 1575 ms.
compute RF
extract quartet support and branch lenghts
Splits	Found	23	Total	23	Frac	1	MaxLnDf	0.128	Ratio	0.986	MaxBtDf	0.88
